/*---------------------------------------------------------------------------*\
| =========                 |                                                 |
| \\      /  F ield         | OpenFOAM: The Open Source CFD Toolbox           |
|  \\    /   O peration     | Version:  2412                                  |
|   \\  /    A nd           | Website:  www.openfoam.com                      |
|    \\/     M anipulation  |                                                 |
\*---------------------------------------------------------------------------*/
Build  : _2c4871ff-20250317 OPENFOAM=2412 version=2412
Arch   : "LSB;label=32;scalar=64"
Exec   : pimpleFoam -parallel
Date   : Apr 10 2025
Time   : 13:04:24
Host   : rricarrd-PRIMERGY-RX300-S7
PID    : 509761
I/O    : uncollated
Case   : /home/rricarrd/OpenFOAM/rricarrd-v2412/run/planeChannel/basicCase
nProcs : 16
Hosts  :
(
    (rricarrd-PRIMERGY-RX300-S7 16)
)
Pstream initialized with:
    floatTransfer      : false
    maxCommsSize       : 0
    nProcsSimpleSum    : 0
    nonBlockingExchange: 0 (tuning: 0)
    exchange algorithm : 0
    commsType          : nonBlocking
    polling iterations : 0
trapFpe: Floating point exception trapping enabled (FOAM_SIGFPE).
fileModificationChecking : Monitoring run-time modified files using timeStampMaster (fileModificationSkew 5, maxFileModificationPolls 20)
allowSystemOperations : Allowing user-supplied system call operations

// * * * * * * * * * * * * * * * * * * * * * * * * * * * * * * * * * * * * * //
Create time

Create mesh for time = 0


PIMPLE: max iterations = 40
    field "(U|k|epsilon|omega)"	: relTol 0, tolerance 0.001

Reading field p

Reading field U

Reading/calculating face flux field phi

Selecting incompressible transport model Newtonian
Selecting turbulence model type LES
Selecting LES turbulence model dynamicSmagorinsky
Selecting LES delta type cubeRootVol
dynamicSmagorinskyCoeffs
{
    filter          simple;
    Cs              0.065;
    Ce              1.048;
    Ck              0.02655;
}

No MRF models present

Creating finite volume options from "system/fvOptions"

Selecting finite volume options type meanVelocityForce
    Source: momentumSource
    - selecting all cells
    - selected 32768 cell(s) with volume 33.570083
    Initial pressure gradient = 0

Courant Number mean: 0.019383924 max: 0.028878432
wallShearStress wallShearStress:
    processing (2) wall patches:
        bottom
        top

Using dynamicCode for functionObject ReTau at line 20 in "/home/rricarrd/OpenFOAM/rricarrd-v2412/run/planeChannel/basicCase/system/controlDict/functions/ReTau"
fieldAverage fieldAverage1:
    Restarting averaging for fields:
        U: starting averaging at time 0
        p: starting averaging at time 0
        wallShearStress: starting averaging at time 0
        Cf: starting averaging at time 0

Courant Number mean: 0.019383924 max: 0.028878432

Starting time loop

Courant Number mean: 0.019383924 max: 0.028878432
deltaT = 0.006
Time = 0.006

PIMPLE: iteration 1
DILUPBiCG:  Solving for Ux, Initial residual = 1.0136697e-05, Final residual = 1.5135477e-08, No Iterations 1
DILUPBiCG:  Solving for Uy, Initial residual = 0.0027619984, Final residual = 4.6543658e-06, No Iterations 1
DILUPBiCG:  Solving for Uz, Initial residual = 1, Final residual = 0.0015224524, No Iterations 1
Pressure gradient source: uncorrected Ubar = 0.66741394, pressure gradient = -0.12471089
GAMG:  Solving for p, Initial residual = 1, Final residual = 0.004574522, No Iterations 4
GAMG:  Solving for p, Initial residual = 0.0022871221, Final residual = 7.6102633e-06, No Iterations 5
time step continuity errors : sum local = 4.6047006e-11, global = 1.7517431e-20, cumulative = 1.7517431e-20
Pressure gradient source: uncorrected Ubar = 0.66741306, pressure gradient = -0.1245626
GAMG:  Solving for p, Initial residual = 0.0026762317, Final residual = 2.3039502e-05, No Iterations 3
GAMG:  Solving for p, Initial residual = 2.3053029e-05, Final residual = 7.1545934e-06, No Iterations 1
time step continuity errors : sum local = 4.3038227e-11, global = 1.6220308e-20, cumulative = 3.3737738e-20
Pressure gradient source: uncorrected Ubar = 0.66741306, pressure gradient = -0.12456264
GAMG:  Solving for p, Initial residual = 1.3103542e-05, Final residual = 2.158678e-06, No Iterations 1
GAMG:  Solving for p, Initial residual = 2.1586718e-06, Final residual = 2.1586718e-06, No Iterations 0
time step continuity errors : sum local = 1.3064153e-11, global = 1.5143627e-20, cumulative = 4.8881365e-20
Pressure gradient source: uncorrected Ubar = 0.66741306, pressure gradient = -0.12456264
GAMG:  Solving for p, Initial residual = 2.1661719e-06, Final residual = 2.1661719e-06, No Iterations 0
GAMG:  Solving for p, Initial residual = 2.1661719e-06, Final residual = 2.1661719e-06, No Iterations 0
time step continuity errors : sum local = 1.3109162e-11, global = 2.96482e-20, cumulative = 7.8529565e-20
Pressure gradient source: uncorrected Ubar = 0.66741306, pressure gradient = -0.12456264
GAMG:  Solving for p, Initial residual = 2.1657344e-06, Final residual = 2.1657344e-06, No Iterations 0
GAMG:  Solving for p, Initial residual = 2.1657344e-06, Final residual = 6.6733074e-07, No Iterations 1
time step continuity errors : sum local = 4.0216171e-12, global = 1.7322884e-20, cumulative = 9.5852449e-20
Pressure gradient source: uncorrected Ubar = 0.66741306, pressure gradient = -0.12456264
PIMPLE: iteration 2
DILUPBiCG:  Solving for Ux, Initial residual = 3.2797351e-06, Final residual = 8.5961626e-09, No Iterations 1
DILUPBiCG:  Solving for Uy, Initial residual = 3.7840671e-06, Final residual = 4.3846988e-07, No Iterations 1
DILUPBiCG:  Solving for Uz, Initial residual = 3.8979833e-05, Final residual = 2.5573223e-07, No Iterations 1
Pressure gradient source: uncorrected Ubar = 0.66666667, pressure gradient = -0.12456262
GAMG:  Solving for p, Initial residual = 0.003638173, Final residual = 2.0189479e-05, No Iterations 3
GAMG:  Solving for p, Initial residual = 2.0182266e-05, Final residual = 6.2353378e-06, No Iterations 1
time step continuity errors : sum local = 3.7563988e-11, global = 1.6651559e-20, cumulative = 1.1250401e-19
Pressure gradient source: uncorrected Ubar = 0.66666667, pressure gradient = -0.12456263
GAMG:  Solving for p, Initial residual = 3.6820984e-05, Final residual = 2.6106952e-06, No Iterations 1
GAMG:  Solving for p, Initial residual = 2.6107429e-06, Final residual = 2.6107429e-06, No Iterations 0
time step continuity errors : sum local = 1.5791369e-11, global = 1.4469421e-20, cumulative = 1.2697343e-19
Pressure gradient source: uncorrected Ubar = 0.66666667, pressure gradient = -0.12456264
GAMG:  Solving for p, Initial residual = 2.6462106e-06, Final residual = 2.6462106e-06, No Iterations 0
GAMG:  Solving for p, Initial residual = 2.6462106e-06, Final residual = 2.6462106e-06, No Iterations 0
time step continuity errors : sum local = 1.6004357e-11, global = 8.2115057e-21, cumulative = 1.3518493e-19
Pressure gradient source: uncorrected Ubar = 0.66666667, pressure gradient = -0.12456264
GAMG:  Solving for p, Initial residual = 2.6453753e-06, Final residual = 2.6453753e-06, No Iterations 0
GAMG:  Solving for p, Initial residual = 2.6453753e-06, Final residual = 2.6453753e-06, No Iterations 0
time step continuity errors : sum local = 1.5999341e-11, global = 2.1153934e-20, cumulative = 1.5633887e-19
Pressure gradient source: uncorrected Ubar = 0.66666667, pressure gradient = -0.12456264
GAMG:  Solving for p, Initial residual = 2.6453214e-06, Final residual = 2.6453214e-06, No Iterations 0
GAMG:  Solving for p, Initial residual = 2.6453214e-06, Final residual = 6.0593483e-07, No Iterations 1
time step continuity errors : sum local = 3.6563293e-12, global = 3.1382157e-20, cumulative = 1.8772102e-19
Pressure gradient source: uncorrected Ubar = 0.66666667, pressure gradient = -0.12456264
PIMPLE: iteration 3
DILUPBiCG:  Solving for Ux, Initial residual = 6.57577e-08, Final residual = 5.2891542e-11, No Iterations 1
DILUPBiCG:  Solving for Uy, Initial residual = 2.5764462e-06, Final residual = 4.1931709e-09, No Iterations 1
DILUPBiCG:  Solving for Uz, Initial residual = 3.0689102e-06, Final residual = 9.7212936e-09, No Iterations 1
Pressure gradient source: uncorrected Ubar = 0.66666667, pressure gradient = -0.12456264
GAMG:  Solving for p, Initial residual = 1.0447318e-05, Final residual = 4.5059311e-07, No Iterations 1
GAMG:  Solving for p, Initial residual = 4.5059247e-07, Final residual = 4.5059247e-07, No Iterations 0
time step continuity errors : sum local = 2.7215411e-12, global = 1.872432e-20, cumulative = 2.0644534e-19
Pressure gradient source: uncorrected Ubar = 0.66666667, pressure gradient = -0.12456264
GAMG:  Solving for p, Initial residual = 4.7807697e-07, Final residual = 4.7807697e-07, No Iterations 0
GAMG:  Solving for p, Initial residual = 4.7807697e-07, Final residual = 4.7807697e-07, No Iterations 0
time step continuity errors : sum local = 2.8865891e-12, global = 2.369393e-20, cumulative = 2.3013927e-19
Pressure gradient source: uncorrected Ubar = 0.66666667, pressure gradient = -0.12456264
GAMG:  Solving for p, Initial residual = 4.7872049e-07, Final residual = 4.7872049e-07, No Iterations 0
GAMG:  Solving for p, Initial residual = 4.7872049e-07, Final residual = 4.7872049e-07, No Iterations 0
time step continuity errors : sum local = 2.8904536e-12, global = 3.1930026e-20, cumulative = 2.620693e-19
Pressure gradient source: uncorrected Ubar = 0.66666667, pressure gradient = -0.12456264
GAMG:  Solving for p, Initial residual = 4.7869e-07, Final residual = 4.7869e-07, No Iterations 0
GAMG:  Solving for p, Initial residual = 4.7869e-07, Final residual = 4.7869e-07, No Iterations 0
time step continuity errors : sum local = 2.8902704e-12, global = 1.4893356e-20, cumulative = 2.7696266e-19
Pressure gradient source: uncorrected Ubar = 0.66666667, pressure gradient = -0.12456264
GAMG:  Solving for p, Initial residual = 4.7868961e-07, Final residual = 4.7868961e-07, No Iterations 0
GAMG:  Solving for p, Initial residual = 4.7868961e-07, Final residual = 4.7868961e-07, No Iterations 0
time step continuity errors : sum local = 2.8902681e-12, global = 9.9495669e-21, cumulative = 2.8691222e-19
Pressure gradient source: uncorrected Ubar = 0.66666667, pressure gradient = -0.12456264
PIMPLE: converged in 3 iterations
ExecutionTime = 0.65 s  ClockTime = 1 s

Create a Re tau field
Computing Re tau field

Patch id top: 1
sumReTau 99180.815
nodes: 1024
Average ReTau: 96.856265
Courant Number mean: 0.02324215 max: 0.034639819
deltaT = 0.0072
Time = 0.0132

PIMPLE: iteration 1
DILUPBiCG:  Solving for Ux, Initial residual = 0.0014213482, Final residual = 1.7556596e-06, No Iterations 1
DILUPBiCG:  Solving for Uy, Initial residual = 0.011574313, Final residual = 1.6871898e-05, No Iterations 1
DILUPBiCG:  Solving for Uz, Initial residual = 0.37497315, Final residual = 0.00044344756, No Iterations 1
Pressure gradient source: uncorrected Ubar = 0.66576715, pressure gradient = 0.068714463
GAMG:  Solving for p, Initial residual = 0.98136987, Final residual = 0.0043973381, No Iterations 4
GAMG:  Solving for p, Initial residual = 0.0061746987, Final residual = 2.076145e-05, No Iterations 5
time step continuity errors : sum local = 6.453561e-11, global = 6.7218686e-21, cumulative = 2.9363409e-19
Pressure gradient source: uncorrected Ubar = 0.66576799, pressure gradient = 0.068533496
GAMG:  Solving for p, Initial residual = 0.0058739848, Final residual = 4.939747e-05, No Iterations 3
GAMG:  Solving for p, Initial residual = 4.9480528e-05, Final residual = 4.8270011e-06, No Iterations 2
time step continuity errors : sum local = 1.4929164e-11, global = 1.6056687e-20, cumulative = 3.0969078e-19
Pressure gradient source: uncorrected Ubar = 0.66576799, pressure gradient = 0.068533466
GAMG:  Solving for p, Initial residual = 1.9060965e-05, Final residual = 1.5123648e-06, No Iterations 1
GAMG:  Solving for p, Initial residual = 1.5123508e-06, Final residual = 1.5123508e-06, No Iterations 0
time step continuity errors : sum local = 4.6959359e-12, global = 1.7985964e-20, cumulative = 3.2767674e-19
Pressure gradient source: uncorrected Ubar = 0.66576799, pressure gradient = 0.068533466
GAMG:  Solving for p, Initial residual = 1.5372198e-06, Final residual = 1.5372198e-06, No Iterations 0
GAMG:  Solving for p, Initial residual = 1.5372198e-06, Final residual = 1.5372198e-06, No Iterations 0
time step continuity errors : sum local = 4.7727096e-12, global = 2.4172872e-21, cumulative = 3.3009403e-19
Pressure gradient source: uncorrected Ubar = 0.66576799, pressure gradient = 0.068533466
GAMG:  Solving for p, Initial residual = 1.5364966e-06, Final residual = 1.5364966e-06, No Iterations 0
GAMG:  Solving for p, Initial residual = 1.5364966e-06, Final residual = 4.2725882e-07, No Iterations 1
time step continuity errors : sum local = 1.3233286e-12, global = 1.9842747e-20, cumulative = 3.4993678e-19
Pressure gradient source: uncorrected Ubar = 0.66576799, pressure gradient = 0.068533466
PIMPLE: iteration 2
DILUPBiCG:  Solving for Ux, Initial residual = 1.1029738e-07, Final residual = 1.1029738e-07, No Iterations 0
DILUPBiCG:  Solving for Uy, Initial residual = 3.026495e-06, Final residual = 1.324598e-08, No Iterations 1
DILUPBiCG:  Solving for Uz, Initial residual = 6.3733569e-06, Final residual = 1.6035692e-08, No Iterations 1
Pressure gradient source: uncorrected Ubar = 0.66666667, pressure gradient = 0.068533466
GAMG:  Solving for p, Initial residual = 0.00033820299, Final residual = 6.1209489e-06, No Iterations 2
GAMG:  Solving for p, Initial residual = 6.121291e-06, Final residual = 6.121291e-06, No Iterations 0
time step continuity errors : sum local = 1.8931259e-11, global = -1.1068236e-20, cumulative = 3.3886854e-19
Pressure gradient source: uncorrected Ubar = 0.66666667, pressure gradient = 0.068533466
GAMG:  Solving for p, Initial residual = 6.3811548e-06, Final residual = 6.3811548e-06, No Iterations 0
GAMG:  Solving for p, Initial residual = 6.3811548e-06, Final residual = 6.3811548e-06, No Iterations 0
time step continuity errors : sum local = 1.9733997e-11, global = -1.9197744e-21, cumulative = 3.3694877e-19
Pressure gradient source: uncorrected Ubar = 0.66666667, pressure gradient = 0.068533466
GAMG:  Solving for p, Initial residual = 6.3799231e-06, Final residual = 6.3799231e-06, No Iterations 0
GAMG:  Solving for p, Initial residual = 6.3799231e-06, Final residual = 6.3799231e-06, No Iterations 0
time step continuity errors : sum local = 1.9730188e-11, global = 1.0210461e-20, cumulative = 3.4715923e-19
Pressure gradient source: uncorrected Ubar = 0.66666667, pressure gradient = 0.068533466
GAMG:  Solving for p, Initial residual = 6.3797925e-06, Final residual = 6.3797925e-06, No Iterations 0
GAMG:  Solving for p, Initial residual = 6.3797925e-06, Final residual = 6.3797925e-06, No Iterations 0
time step continuity errors : sum local = 1.9729785e-11, global = 1.8432399e-20, cumulative = 3.6559163e-19
Pressure gradient source: uncorrected Ubar = 0.66666667, pressure gradient = 0.068533466
GAMG:  Solving for p, Initial residual = 6.3797926e-06, Final residual = 6.3797926e-06, No Iterations 0
GAMG:  Solving for p, Initial residual = 6.3797926e-06, Final residual = 5.7756507e-07, No Iterations 2
time step continuity errors : sum local = 1.7839176e-12, global = 1.1289097e-20, cumulative = 3.7688072e-19
Pressure gradient source: uncorrected Ubar = 0.66666667, pressure gradient = 0.068533466
PIMPLE: iteration 3
DILUPBiCG:  Solving for Ux, Initial residual = 6.1271423e-08, Final residual = 3.3792627e-11, No Iterations 1
DILUPBiCG:  Solving for Uy, Initial residual = 2.4085177e-06, Final residual = 3.0391922e-09, No Iterations 1
DILUPBiCG:  Solving for Uz, Initial residual = 2.3687378e-06, Final residual = 2.8850475e-09, No Iterations 1
Pressure gradient source: uncorrected Ubar = 0.66666667, pressure gradient = 0.068533466
GAMG:  Solving for p, Initial residual = 4.3818229e-06, Final residual = 4.3818229e-06, No Iterations 0
GAMG:  Solving for p, Initial residual = 4.3818229e-06, Final residual = 4.3818229e-06, No Iterations 0
time step continuity errors : sum local = 1.3528082e-11, global = 1.7231422e-20, cumulative = 3.9411214e-19
Pressure gradient source: uncorrected Ubar = 0.66666667, pressure gradient = 0.068533466
GAMG:  Solving for p, Initial residual = 4.3821704e-06, Final residual = 4.3821704e-06, No Iterations 0
GAMG:  Solving for p, Initial residual = 4.3821704e-06, Final residual = 4.3821704e-06, No Iterations 0
time step continuity errors : sum local = 1.3529104e-11, global = 2.4625175e-20, cumulative = 4.1873732e-19
Pressure gradient source: uncorrected Ubar = 0.66666667, pressure gradient = 0.068533466
GAMG:  Solving for p, Initial residual = 4.382148e-06, Final residual = 4.382148e-06, No Iterations 0
GAMG:  Solving for p, Initial residual = 4.382148e-06, Final residual = 4.382148e-06, No Iterations 0
time step continuity errors : sum local = 1.3529033e-11, global = -9.6627406e-21, cumulative = 4.0907458e-19
Pressure gradient source: uncorrected Ubar = 0.66666667, pressure gradient = 0.068533466
GAMG:  Solving for p, Initial residual = 4.3821481e-06, Final residual = 4.3821481e-06, No Iterations 0
GAMG:  Solving for p, Initial residual = 4.3821481e-06, Final residual = 4.3821481e-06, No Iterations 0
time step continuity errors : sum local = 1.3529034e-11, global = 9.3569836e-21, cumulative = 4.1843156e-19
Pressure gradient source: uncorrected Ubar = 0.66666667, pressure gradient = 0.068533466
GAMG:  Solving for p, Initial residual = 4.3821481e-06, Final residual = 4.3821481e-06, No Iterations 0
GAMG:  Solving for p, Initial residual = 4.3821481e-06, Final residual = 2.3650549e-07, No Iterations 1
time step continuity errors : sum local = 7.3028423e-13, global = 1.174656e-20, cumulative = 4.3017812e-19
Pressure gradient source: uncorrected Ubar = 0.66666667, pressure gradient = 0.068533466
PIMPLE: converged in 3 iterations
ExecutionTime = 1.19 s  ClockTime = 2 s

Computing Re tau field

Patch id top: 1
sumReTau 99199.105
nodes: 1024
Average ReTau: 96.874126
Courant Number mean: 0.027890546 max: 0.04156776
deltaT = 0.00864
Time = 0.02184

PIMPLE: iteration 1
DILUPBiCG:  Solving for Ux, Initial residual = 0.00060140537, Final residual = 8.9163146e-07, No Iterations 1
DILUPBiCG:  Solving for Uy, Initial residual = 0.005425053, Final residual = 1.072783e-05, No Iterations 1
DILUPBiCG:  Solving for Uz, Initial residual = 0.33917316, Final residual = 0.00048396692, No Iterations 1
Pressure gradient source: uncorrected Ubar = 0.66704763, pressure gradient = 0.00030532906
GAMG:  Solving for p, Initial residual = 0.78654263, Final residual = 0.0035320341, No Iterations 4
GAMG:  Solving for p, Initial residual = 0.0091738952, Final residual = 3.0840439e-05, No Iterations 5
time step continuity errors : sum local = 3.2805628e-11, global = -1.3064188e-20, cumulative = 4.1711394e-19
Pressure gradient source: uncorrected Ubar = 0.6670472, pressure gradient = 0.0003821125
GAMG:  Solving for p, Initial residual = 0.010439578, Final residual = 8.7595626e-05, No Iterations 3
GAMG:  Solving for p, Initial residual = 8.7146983e-05, Final residual = 8.5025482e-06, No Iterations 2
time step continuity errors : sum local = 9.1216289e-12, global = -3.9242382e-20, cumulative = 3.7787155e-19
Pressure gradient source: uncorrected Ubar = 0.6670472, pressure gradient = 0.00038213806
GAMG:  Solving for p, Initial residual = 4.080216e-05, Final residual = 2.7267329e-06, No Iterations 1
GAMG:  Solving for p, Initial residual = 2.7267427e-06, Final residual = 2.7267427e-06, No Iterations 0
time step continuity errors : sum local = 2.9360618e-12, global = -8.9097889e-22, cumulative = 3.7698058e-19
Pressure gradient source: uncorrected Ubar = 0.6670472, pressure gradient = 0.00038213825
GAMG:  Solving for p, Initial residual = 2.8254287e-06, Final residual = 2.8254287e-06, No Iterations 0
GAMG:  Solving for p, Initial residual = 2.8254287e-06, Final residual = 2.8254287e-06, No Iterations 0
time step continuity errors : sum local = 3.0416884e-12, global = -2.5345348e-20, cumulative = 3.5163523e-19
Pressure gradient source: uncorrected Ubar = 0.6670472, pressure gradient = 0.00038213825
GAMG:  Solving for p, Initial residual = 2.823056e-06, Final residual = 2.823056e-06, No Iterations 0
GAMG:  Solving for p, Initial residual = 2.823056e-06, Final residual = 7.2862312e-07, No Iterations 1
time step continuity errors : sum local = 7.827961e-13, global = -2.0194693e-20, cumulative = 3.3144053e-19
Pressure gradient source: uncorrected Ubar = 0.6670472, pressure gradient = 0.00038213825
PIMPLE: iteration 2
DILUPBiCG:  Solving for Ux, Initial residual = 1.3111236e-07, Final residual = 1.3111236e-07, No Iterations 0
DILUPBiCG:  Solving for Uy, Initial residual = 2.6143678e-06, Final residual = 2.5028174e-08, No Iterations 1
DILUPBiCG:  Solving for Uz, Initial residual = 5.2094663e-06, Final residual = 2.3473962e-08, No Iterations 1
Pressure gradient source: uncorrected Ubar = 0.66666667, pressure gradient = 0.00038213825
GAMG:  Solving for p, Initial residual = 0.0016206237, Final residual = 8.8196644e-06, No Iterations 3
GAMG:  Solving for p, Initial residual = 8.8204544e-06, Final residual = 8.8204544e-06, No Iterations 0
time step continuity errors : sum local = 9.473947e-12, global = -3.7431547e-20, cumulative = 2.9400899e-19
Pressure gradient source: uncorrected Ubar = 0.66666667, pressure gradient = 0.00038213887
GAMG:  Solving for p, Initial residual = 1.0629479e-05, Final residual = 2.6596104e-06, No Iterations 1
GAMG:  Solving for p, Initial residual = 2.6596077e-06, Final residual = 2.6596077e-06, No Iterations 0
time step continuity errors : sum local = 2.8771457e-12, global = -1.7868136e-20, cumulative = 2.7614085e-19
Pressure gradient source: uncorrected Ubar = 0.66666667, pressure gradient = 0.00038213827
GAMG:  Solving for p, Initial residual = 2.6540396e-06, Final residual = 2.6540396e-06, No Iterations 0
GAMG:  Solving for p, Initial residual = 2.6540396e-06, Final residual = 2.6540396e-06, No Iterations 0
time step continuity errors : sum local = 2.8711833e-12, global = -1.1191957e-21, cumulative = 2.7502166e-19
Pressure gradient source: uncorrected Ubar = 0.66666667, pressure gradient = 0.00038213827
GAMG:  Solving for p, Initial residual = 2.6540422e-06, Final residual = 2.6540422e-06, No Iterations 0
GAMG:  Solving for p, Initial residual = 2.6540422e-06, Final residual = 2.6540422e-06, No Iterations 0
time step continuity errors : sum local = 2.871186e-12, global = -2.4207983e-20, cumulative = 2.5081367e-19
Pressure gradient source: uncorrected Ubar = 0.66666667, pressure gradient = 0.00038213827
GAMG:  Solving for p, Initial residual = 2.6540372e-06, Final residual = 2.6540372e-06, No Iterations 0
GAMG:  Solving for p, Initial residual = 2.6540372e-06, Final residual = 8.3999977e-07, No Iterations 1
time step continuity errors : sum local = 9.0402808e-13, global = -2.2692261e-20, cumulative = 2.2812141e-19
Pressure gradient source: uncorrected Ubar = 0.66666667, pressure gradient = 0.00038213827
PIMPLE: iteration 3
DILUPBiCG:  Solving for Ux, Initial residual = 3.1308678e-08, Final residual = 2.0833355e-11, No Iterations 1
DILUPBiCG:  Solving for Uy, Initial residual = 1.2238957e-06, Final residual = 1.8012192e-09, No Iterations 1
DILUPBiCG:  Solving for Uz, Initial residual = 1.2065822e-06, Final residual = 1.8488789e-09, No Iterations 1
Pressure gradient source: uncorrected Ubar = 0.66666667, pressure gradient = 0.00038213828
GAMG:  Solving for p, Initial residual = 1.4553942e-05, Final residual = 4.3352868e-07, No Iterations 1
GAMG:  Solving for p, Initial residual = 4.3352834e-07, Final residual = 4.3352834e-07, No Iterations 0
time step continuity errors : sum local = 4.6974402e-13, global = -7.2491511e-21, cumulative = 2.2087226e-19
Pressure gradient source: uncorrected Ubar = 0.66666667, pressure gradient = 0.00038213827
GAMG:  Solving for p, Initial residual = 4.9944912e-07, Final residual = 4.9944912e-07, No Iterations 0
GAMG:  Solving for p, Initial residual = 4.9944912e-07, Final residual = 4.9944912e-07, No Iterations 0
time step continuity errors : sum local = 5.4033387e-13, global = -1.5796454e-20, cumulative = 2.0507581e-19
Pressure gradient source: uncorrected Ubar = 0.66666667, pressure gradient = 0.00038213827
GAMG:  Solving for p, Initial residual = 5.0011685e-07, Final residual = 5.0011685e-07, No Iterations 0
GAMG:  Solving for p, Initial residual = 5.0011685e-07, Final residual = 5.0011685e-07, No Iterations 0
time step continuity errors : sum local = 5.4104887e-13, global = -4.3861899e-20, cumulative = 1.6121391e-19
Pressure gradient source: uncorrected Ubar = 0.66666667, pressure gradient = 0.00038213827
GAMG:  Solving for p, Initial residual = 5.0004923e-07, Final residual = 5.0004923e-07, No Iterations 0
GAMG:  Solving for p, Initial residual = 5.0004923e-07, Final residual = 5.0004923e-07, No Iterations 0
time step continuity errors : sum local = 5.4097646e-13, global = -3.4541797e-20, cumulative = 1.2667211e-19
Pressure gradient source: uncorrected Ubar = 0.66666667, pressure gradient = 0.00038213827
GAMG:  Solving for p, Initial residual = 5.0004878e-07, Final residual = 5.0004878e-07, No Iterations 0
GAMG:  Solving for p, Initial residual = 5.0004878e-07, Final residual = 5.0004878e-07, No Iterations 0
time step continuity errors : sum local = 5.4097597e-13, global = -4.9303007e-20, cumulative = 7.7369102e-20
Pressure gradient source: uncorrected Ubar = 0.66666667, pressure gradient = 0.00038213827
PIMPLE: converged in 3 iterations
ExecutionTime = 1.68 s  ClockTime = 2 s

Computing Re tau field

Patch id top: 1
sumReTau 99220.755
nodes: 1024
Average ReTau: 96.895269
Courant Number mean: 0.033468603 max: 0.049881271
deltaT = 0.010368
Time = 0.032208

PIMPLE: iteration 1
DILUPBiCG:  Solving for Ux, Initial residual = 4.3135279e-05, Final residual = 3.477988e-08, No Iterations 1
DILUPBiCG:  Solving for Uy, Initial residual = 0.0018755544, Final residual = 3.350387e-06, No Iterations 1
DILUPBiCG:  Solving for Uz, Initial residual = 0.0059131734, Final residual = 1.2146495e-05, No Iterations 1
Pressure gradient source: uncorrected Ubar = 0.66666667, pressure gradient = 0.00038233904
GAMG:  Solving for p, Initial residual = 0.0053966012, Final residual = 3.9714071e-05, No Iterations 2
GAMG:  Solving for p, Initial residual = 3.975823e-05, Final residual = 3.6190592e-06, No Iterations 2
time step continuity errors : sum local = 5.5795135e-12, global = 2.8259438e-20, cumulative = 1.0562854e-19
Pressure gradient source: uncorrected Ubar = 0.66666667, pressure gradient = 0.00038235199
GAMG:  Solving for p, Initial residual = 8.1145338e-05, Final residual = 2.0295826e-06, No Iterations 1
GAMG:  Solving for p, Initial residual = 2.0295675e-06, Final residual = 2.0295675e-06, No Iterations 0
time step continuity errors : sum local = 3.1257947e-12, global = -2.2276101e-20, cumulative = 8.3352439e-20
Pressure gradient source: uncorrected Ubar = 0.66666667, pressure gradient = 0.00038235197
GAMG:  Solving for p, Initial residual = 2.6779869e-06, Final residual = 2.6779869e-06, No Iterations 0
GAMG:  Solving for p, Initial residual = 2.6779869e-06, Final residual = 2.6779869e-06, No Iterations 0
time step continuity errors : sum local = 4.1226426e-12, global = -2.8345549e-20, cumulative = 5.5006891e-20
Pressure gradient source: uncorrected Ubar = 0.66666667, pressure gradient = 0.00038235197
GAMG:  Solving for p, Initial residual = 2.6785936e-06, Final residual = 2.6785936e-06, No Iterations 0
GAMG:  Solving for p, Initial residual = 2.6785936e-06, Final residual = 2.6785936e-06, No Iterations 0
time step continuity errors : sum local = 4.1236567e-12, global = -1.2258824e-20, cumulative = 4.2748066e-20
Pressure gradient source: uncorrected Ubar = 0.66666667, pressure gradient = 0.00038235197
GAMG:  Solving for p, Initial residual = 2.677569e-06, Final residual = 2.677569e-06, No Iterations 0
GAMG:  Solving for p, Initial residual = 2.677569e-06, Final residual = 3.5839709e-07, No Iterations 1
time step continuity errors : sum local = 5.5177731e-13, global = 1.8218596e-20, cumulative = 6.0966662e-20
Pressure gradient source: uncorrected Ubar = 0.66666667, pressure gradient = 0.00038235197
PIMPLE: iteration 2
DILUPBiCG:  Solving for Ux, Initial residual = 1.7815756e-07, Final residual = 1.7815756e-07, No Iterations 0
DILUPBiCG:  Solving for Uy, Initial residual = 2.4695471e-06, Final residual = 9.3269532e-07, No Iterations 1
DILUPBiCG:  Solving for Uz, Initial residual = 4.9293655e-06, Final residual = 8.3933702e-08, No Iterations 1
Pressure gradient source: uncorrected Ubar = 0.66666667, pressure gradient = 0.00038235197
GAMG:  Solving for p, Initial residual = 0.0019342758, Final residual = 1.0462794e-05, No Iterations 3
GAMG:  Solving for p, Initial residual = 1.0462761e-05, Final residual = 3.2394197e-06, No Iterations 1
time step continuity errors : sum local = 4.9936259e-12, global = -1.0950382e-20, cumulative = 5.001628e-20
Pressure gradient source: uncorrected Ubar = 0.66666667, pressure gradient = 0.00038235271
GAMG:  Solving for p, Initial residual = 1.1782545e-05, Final residual = 1.0745624e-06, No Iterations 1
GAMG:  Solving for p, Initial residual = 1.0745611e-06, Final residual = 1.0745611e-06, No Iterations 0
time step continuity errors : sum local = 1.6654995e-12, global = -2.5063396e-20, cumulative = 2.4952884e-20
Pressure gradient source: uncorrected Ubar = 0.66666667, pressure gradient = 0.00038235201
GAMG:  Solving for p, Initial residual = 1.1345262e-06, Final residual = 1.1345262e-06, No Iterations 0
GAMG:  Solving for p, Initial residual = 1.1345262e-06, Final residual = 1.1345262e-06, No Iterations 0
time step continuity errors : sum local = 1.7577475e-12, global = -1.4859292e-20, cumulative = 1.0093592e-20
Pressure gradient source: uncorrected Ubar = 0.66666667, pressure gradient = 0.00038235201
GAMG:  Solving for p, Initial residual = 1.1340286e-06, Final residual = 1.1340286e-06, No Iterations 0
GAMG:  Solving for p, Initial residual = 1.1340286e-06, Final residual = 1.1340286e-06, No Iterations 0
time step continuity errors : sum local = 1.7569819e-12, global = -3.2023547e-21, cumulative = 6.8912369e-21
Pressure gradient source: uncorrected Ubar = 0.66666667, pressure gradient = 0.00038235201
GAMG:  Solving for p, Initial residual = 1.1339285e-06, Final residual = 1.1339285e-06, No Iterations 0
GAMG:  Solving for p, Initial residual = 1.1339285e-06, Final residual = 3.2329937e-07, No Iterations 1
time step continuity errors : sum local = 4.9929985e-13, global = -2.1814104e-20, cumulative = -1.4922868e-20
Pressure gradient source: uncorrected Ubar = 0.66666667, pressure gradient = 0.00038235201
PIMPLE: iteration 3
DILUPBiCG:  Solving for Ux, Initial residual = 4.7925023e-10, Final residual = 4.7925023e-10, No Iterations 0
DILUPBiCG:  Solving for Uy, Initial residual = 2.3699916e-08, Final residual = 2.2099928e-10, No Iterations 1
DILUPBiCG:  Solving for Uz, Initial residual = 5.3653516e-08, Final residual = 6.8402634e-10, No Iterations 1
Pressure gradient source: uncorrected Ubar = 0.66666667, pressure gradient = 0.00038235201
GAMG:  Solving for p, Initial residual = 1.3167188e-05, Final residual = 3.6924884e-07, No Iterations 1
GAMG:  Solving for p, Initial residual = 3.692484e-07, Final residual = 3.692484e-07, No Iterations 0
time step continuity errors : sum local = 5.7191677e-13, global = -3.7777719e-20, cumulative = -5.2700586e-20
Pressure gradient source: uncorrected Ubar = 0.66666667, pressure gradient = 0.00038235201
GAMG:  Solving for p, Initial residual = 3.8909114e-07, Final residual = 3.8909114e-07, No Iterations 0
GAMG:  Solving for p, Initial residual = 3.8909114e-07, Final residual = 3.8909114e-07, No Iterations 0
time step continuity errors : sum local = 6.0244206e-13, global = -8.2857062e-21, cumulative = -6.0986293e-20
Pressure gradient source: uncorrected Ubar = 0.66666667, pressure gradient = 0.00038235201
GAMG:  Solving for p, Initial residual = 3.8892429e-07, Final residual = 3.8892429e-07, No Iterations 0
GAMG:  Solving for p, Initial residual = 3.8892429e-07, Final residual = 3.8892429e-07, No Iterations 0
time step continuity errors : sum local = 6.0218541e-13, global = -2.1639555e-20, cumulative = -8.2625847e-20
Pressure gradient source: uncorrected Ubar = 0.66666667, pressure gradient = 0.00038235201
GAMG:  Solving for p, Initial residual = 3.8890043e-07, Final residual = 3.8890043e-07, No Iterations 0
GAMG:  Solving for p, Initial residual = 3.8890043e-07, Final residual = 3.8890043e-07, No Iterations 0
time step continuity errors : sum local = 6.0214873e-13, global = 4.519147e-21, cumulative = -7.81067e-20
Pressure gradient source: uncorrected Ubar = 0.66666667, pressure gradient = 0.00038235201
GAMG:  Solving for p, Initial residual = 3.8890047e-07, Final residual = 3.8890047e-07, No Iterations 0
GAMG:  Solving for p, Initial residual = 3.8890047e-07, Final residual = 3.8890047e-07, No Iterations 0
time step continuity errors : sum local = 6.0214879e-13, global = 1.1765345e-20, cumulative = -6.6341355e-20
Pressure gradient source: uncorrected Ubar = 0.66666667, pressure gradient = 0.00038235201
PIMPLE: converged in 3 iterations
ExecutionTime = 2.06 s  ClockTime = 2 s

Computing Re tau field

Patch id top: 1
sumReTau 99246.29
nodes: 1024
Average ReTau: 96.920205
Courant Number mean: 0.040162244 max: 0.059857451
deltaT = 0.0124416
Time = 0.0446496

PIMPLE: iteration 1
DILUPBiCG:  Solving for Ux, Initial residual = 5.1731123e-05, Final residual = 4.9758968e-08, No Iterations 1
DILUPBiCG:  Solving for Uy, Initial residual = 0.0022483416, Final residual = 5.0549957e-06, No Iterations 1
DILUPBiCG:  Solving for Uz, Initial residual = 0.0069559449, Final residual = 2.017337e-05, No Iterations 1
Pressure gradient source: uncorrected Ubar = 0.66666666, pressure gradient = 0.00038258773
GAMG:  Solving for p, Initial residual = 0.0044389154, Final residual = 1.3703675e-05, No Iterations 3
GAMG:  Solving for p, Initial residual = 1.371091e-05, Final residual = 4.246078e-06, No Iterations 1
time step continuity errors : sum local = 9.4139269e-12, global = -7.17808e-21, cumulative = -7.3519435e-20
Pressure gradient source: uncorrected Ubar = 0.66666666, pressure gradient = 0.00038260348
GAMG:  Solving for p, Initial residual = 9.5531678e-05, Final residual = 2.6048941e-06, No Iterations 1
GAMG:  Solving for p, Initial residual = 2.604869e-06, Final residual = 2.604869e-06, No Iterations 0
time step continuity errors : sum local = 5.7630945e-12, global = -9.3487931e-22, cumulative = -7.4454314e-20
Pressure gradient source: uncorrected Ubar = 0.66666666, pressure gradient = 0.00038260345
GAMG:  Solving for p, Initial residual = 3.561592e-06, Final residual = 3.561592e-06, No Iterations 0
GAMG:  Solving for p, Initial residual = 3.561592e-06, Final residual = 3.561592e-06, No Iterations 0
time step continuity errors : sum local = 7.8790757e-12, global = -1.0299885e-20, cumulative = -8.4754199e-20
Pressure gradient source: uncorrected Ubar = 0.66666666, pressure gradient = 0.00038260345
GAMG:  Solving for p, Initial residual = 3.5620492e-06, Final residual = 3.5620492e-06, No Iterations 0
GAMG:  Solving for p, Initial residual = 3.5620492e-06, Final residual = 3.5620492e-06, No Iterations 0
time step continuity errors : sum local = 7.8800871e-12, global = 3.7757637e-20, cumulative = -4.6996562e-20
Pressure gradient source: uncorrected Ubar = 0.66666666, pressure gradient = 0.00038260345
GAMG:  Solving for p, Initial residual = 3.5598506e-06, Final residual = 3.5598506e-06, No Iterations 0
GAMG:  Solving for p, Initial residual = 3.5598506e-06, Final residual = 4.3258428e-07, No Iterations 1
time step continuity errors : sum local = 9.5735094e-13, global = 4.1943177e-21, cumulative = -4.2802244e-20
Pressure gradient source: uncorrected Ubar = 0.66666666, pressure gradient = 0.00038260345
PIMPLE: iteration 2
DILUPBiCG:  Solving for Ux, Initial residual = 2.5654992e-07, Final residual = 2.5654992e-07, No Iterations 0
DILUPBiCG:  Solving for Uy, Initial residual = 3.5349439e-06, Final residual = 1.2046633e-09, No Iterations 2
DILUPBiCG:  Solving for Uz, Initial residual = 5.9212128e-06, Final residual = 1.7983e-07, No Iterations 1
Pressure gradient source: uncorrected Ubar = 0.66666667, pressure gradient = 0.00038260345
GAMG:  Solving for p, Initial residual = 0.0023030043, Final residual = 1.2559717e-05, No Iterations 3
GAMG:  Solving for p, Initial residual = 1.255972e-05, Final residual = 3.8874162e-06, No Iterations 1
time step continuity errors : sum local = 8.6183666e-12, global = -1.8062302e-20, cumulative = -6.0864547e-20
Pressure gradient source: uncorrected Ubar = 0.66666667, pressure gradient = 0.00038260452
GAMG:  Solving for p, Initial residual = 1.0552388e-05, Final residual = 1.3233427e-06, No Iterations 1
GAMG:  Solving for p, Initial residual = 1.3233405e-06, Final residual = 1.3233405e-06, No Iterations 0
time step continuity errors : sum local = 2.9499463e-12, global = -1.2084416e-20, cumulative = -7.2948963e-20
Pressure gradient source: uncorrected Ubar = 0.66666667, pressure gradient = 0.00038260351
GAMG:  Solving for p, Initial residual = 1.3529791e-06, Final residual = 1.3529791e-06, No Iterations 0
GAMG:  Solving for p, Initial residual = 1.3529791e-06, Final residual = 1.3529791e-06, No Iterations 0
time step continuity errors : sum local = 3.0155223e-12, global = -6.5374377e-20, cumulative = -1.3832334e-19
Pressure gradient source: uncorrected Ubar = 0.66666667, pressure gradient = 0.0003826035
GAMG:  Solving for p, Initial residual = 1.3520588e-06, Final residual = 1.3520588e-06, No Iterations 0
GAMG:  Solving for p, Initial residual = 1.3520588e-06, Final residual = 1.3520588e-06, No Iterations 0
time step continuity errors : sum local = 3.0134862e-12, global = -2.3125203e-20, cumulative = -1.6144854e-19
Pressure gradient source: uncorrected Ubar = 0.66666667, pressure gradient = 0.0003826035
GAMG:  Solving for p, Initial residual = 1.3519721e-06, Final residual = 1.3519721e-06, No Iterations 0
GAMG:  Solving for p, Initial residual = 1.3519721e-06, Final residual = 3.8736601e-07, No Iterations 1
time step continuity errors : sum local = 8.6050365e-13, global = 1.3353041e-20, cumulative = -1.480955e-19
Pressure gradient source: uncorrected Ubar = 0.66666667, pressure gradient = 0.0003826035
PIMPLE: iteration 3
DILUPBiCG:  Solving for Ux, Initial residual = 8.243155e-10, Final residual = 8.243155e-10, No Iterations 0
DILUPBiCG:  Solving for Uy, Initial residual = 4.118642e-08, Final residual = 5.6566976e-10, No Iterations 1
DILUPBiCG:  Solving for Uz, Initial residual = 7.8249317e-08, Final residual = 1.2195829e-09, No Iterations 1
Pressure gradient source: uncorrected Ubar = 0.66666667, pressure gradient = 0.0003826035
GAMG:  Solving for p, Initial residual = 1.8983e-05, Final residual = 5.1787376e-07, No Iterations 1
GAMG:  Solving for p, Initial residual = 5.1787288e-07, Final residual = 5.1787288e-07, No Iterations 0
time step continuity errors : sum local = 1.1533067e-12, global = -2.413232e-20, cumulative = -1.7222782e-19
Pressure gradient source: uncorrected Ubar = 0.66666667, pressure gradient = 0.0003826035
GAMG:  Solving for p, Initial residual = 5.5574577e-07, Final residual = 5.5574577e-07, No Iterations 0
GAMG:  Solving for p, Initial residual = 5.5574577e-07, Final residual = 5.5574577e-07, No Iterations 0
time step continuity errors : sum local = 1.2371015e-12, global = -3.7490343e-20, cumulative = -2.0971816e-19
Pressure gradient source: uncorrected Ubar = 0.66666667, pressure gradient = 0.0003826035
GAMG:  Solving for p, Initial residual = 5.5540755e-07, Final residual = 5.5540755e-07, No Iterations 0
GAMG:  Solving for p, Initial residual = 5.5540755e-07, Final residual = 5.5540755e-07, No Iterations 0
time step continuity errors : sum local = 1.2363532e-12, global = -3.8271332e-20, cumulative = -2.479895e-19
Pressure gradient source: uncorrected Ubar = 0.66666667, pressure gradient = 0.0003826035
GAMG:  Solving for p, Initial residual = 5.5534254e-07, Final residual = 5.5534254e-07, No Iterations 0
GAMG:  Solving for p, Initial residual = 5.5534254e-07, Final residual = 5.5534254e-07, No Iterations 0
time step continuity errors : sum local = 1.2362093e-12, global = -7.9046427e-21, cumulative = -2.5589414e-19
Pressure gradient source: uncorrected Ubar = 0.66666667, pressure gradient = 0.0003826035
GAMG:  Solving for p, Initial residual = 5.553427e-07, Final residual = 5.553427e-07, No Iterations 0
GAMG:  Solving for p, Initial residual = 5.553427e-07, Final residual = 5.553427e-07, No Iterations 0
time step continuity errors : sum local = 1.2362097e-12, global = 3.0272562e-21, cumulative = -2.5286688e-19
Pressure gradient source: uncorrected Ubar = 0.66666667, pressure gradient = 0.0003826035
PIMPLE: converged in 3 iterations
ExecutionTime = 2.39 s  ClockTime = 3 s

Computing Re tau field

Patch id top: 1
sumReTau 99276.294
nodes: 1024
Average ReTau: 96.949506
Courant Number mean: 0.048194574 max: 0.071828808
deltaT = 0.01492992
Time = 0.05957952

PIMPLE: iteration 1
DILUPBiCG:  Solving for Ux, Initial residual = 6.2045212e-05, Final residual = 7.1179441e-08, No Iterations 1
DILUPBiCG:  Solving for Uy, Initial residual = 0.0026938375, Final residual = 7.7191134e-06, No Iterations 1
DILUPBiCG:  Solving for Uz, Initial residual = 0.0082535439, Final residual = 3.5665008e-05, No Iterations 1
Pressure gradient source: uncorrected Ubar = 0.66666666, pressure gradient = 0.00038287867
GAMG:  Solving for p, Initial residual = 0.0041876086, Final residual = 1.6260491e-05, No Iterations 3
GAMG:  Solving for p, Initial residual = 1.6264641e-05, Final residual = 5.0373984e-06, No Iterations 1
time step continuity errors : sum local = 1.607174e-11, global = -2.1829786e-20, cumulative = -2.7469667e-19
Pressure gradient source: uncorrected Ubar = 0.66666666, pressure gradient = 0.00038289822
GAMG:  Solving for p, Initial residual = 0.00012808313, Final residual = 3.5673748e-06, No Iterations 1
GAMG:  Solving for p, Initial residual = 3.5673277e-06, Final residual = 3.5673277e-06, No Iterations 0
time step continuity errors : sum local = 1.1372293e-11, global = -3.4291878e-20, cumulative = -3.0898855e-19
Pressure gradient source: uncorrected Ubar = 0.66666666, pressure gradient = 0.00038289819
GAMG:  Solving for p, Initial residual = 5.2143995e-06, Final residual = 5.2143995e-06, No Iterations 0
GAMG:  Solving for p, Initial residual = 5.2143995e-06, Final residual = 5.2143995e-06, No Iterations 0
time step continuity errors : sum local = 1.6616169e-11, global = 4.2863974e-21, cumulative = -3.0470215e-19
Pressure gradient source: uncorrected Ubar = 0.66666666, pressure gradient = 0.00038289819
GAMG:  Solving for p, Initial residual = 5.2144475e-06, Final residual = 5.2144475e-06, No Iterations 0
GAMG:  Solving for p, Initial residual = 5.2144475e-06, Final residual = 5.2144475e-06, No Iterations 0
time step continuity errors : sum local = 1.6616321e-11, global = -7.1615394e-21, cumulative = -3.1186369e-19
Pressure gradient source: uncorrected Ubar = 0.66666666, pressure gradient = 0.00038289819
GAMG:  Solving for p, Initial residual = 5.2091703e-06, Final residual = 5.2091703e-06, No Iterations 0
GAMG:  Solving for p, Initial residual = 5.2091703e-06, Final residual = 5.4616868e-07, No Iterations 1
time step continuity errors : sum local = 1.7419778e-12, global = -3.1049083e-20, cumulative = -3.4291277e-19
Pressure gradient source: uncorrected Ubar = 0.66666666, pressure gradient = 0.00038289819
PIMPLE: iteration 2
DILUPBiCG:  Solving for Ux, Initial residual = 3.697607e-07, Final residual = 3.697607e-07, No Iterations 0
DILUPBiCG:  Solving for Uy, Initial residual = 5.0342065e-06, Final residual = 2.8063264e-09, No Iterations 2
DILUPBiCG:  Solving for Uz, Initial residual = 7.6883212e-06, Final residual = 3.9082574e-07, No Iterations 1
Pressure gradient source: uncorrected Ubar = 0.66666667, pressure gradient = 0.00038289819
GAMG:  Solving for p, Initial residual = 0.0027353387, Final residual = 1.5067028e-05, No Iterations 3
GAMG:  Solving for p, Initial residual = 1.5067029e-05, Final residual = 4.6615982e-06, No Iterations 1
time step continuity errors : sum local = 1.4870998e-11, global = -4.4341313e-20, cumulative = -3.8725408e-19
Pressure gradient source: uncorrected Ubar = 0.66666667, pressure gradient = 0.00038289972
GAMG:  Solving for p, Initial residual = 1.4636932e-05, Final residual = 1.6389282e-06, No Iterations 1
GAMG:  Solving for p, Initial residual = 1.6389244e-06, Final residual = 1.6389244e-06, No Iterations 0
time step continuity errors : sum local = 5.2568852e-12, global = -2.719825e-20, cumulative = -4.1445233e-19
Pressure gradient source: uncorrected Ubar = 0.66666667, pressure gradient = 0.00038289827
GAMG:  Solving for p, Initial residual = 1.7025613e-06, Final residual = 1.7025613e-06, No Iterations 0
GAMG:  Solving for p, Initial residual = 1.7025613e-06, Final residual = 1.7025613e-06, No Iterations 0
time step continuity errors : sum local = 5.4594906e-12, global = -4.7523476e-20, cumulative = -4.6197581e-19
Pressure gradient source: uncorrected Ubar = 0.66666667, pressure gradient = 0.00038289826
GAMG:  Solving for p, Initial residual = 1.7008346e-06, Final residual = 1.7008346e-06, No Iterations 0
GAMG:  Solving for p, Initial residual = 1.7008346e-06, Final residual = 1.7008346e-06, No Iterations 0
time step continuity errors : sum local = 5.4539931e-12, global = 1.2596114e-20, cumulative = -4.493797e-19
Pressure gradient source: uncorrected Ubar = 0.66666667, pressure gradient = 0.00038289825
GAMG:  Solving for p, Initial residual = 1.700602e-06, Final residual = 1.700602e-06, No Iterations 0
GAMG:  Solving for p, Initial residual = 1.700602e-06, Final residual = 4.6826477e-07, No Iterations 1
time step continuity errors : sum local = 1.4969329e-12, global = -8.9340665e-20, cumulative = -5.3872036e-19
Pressure gradient source: uncorrected Ubar = 0.66666667, pressure gradient = 0.00038289825
PIMPLE: iteration 3
DILUPBiCG:  Solving for Ux, Initial residual = 1.4164597e-09, Final residual = 1.4164597e-09, No Iterations 0
DILUPBiCG:  Solving for Uy, Initial residual = 7.1214196e-08, Final residual = 1.541597e-09, No Iterations 1
DILUPBiCG:  Solving for Uz, Initial residual = 1.2404242e-07, Final residual = 2.3498736e-09, No Iterations 1
Pressure gradient source: uncorrected Ubar = 0.66666667, pressure gradient = 0.00038289826
GAMG:  Solving for p, Initial residual = 2.7240807e-05, Final residual = 7.324348e-07, No Iterations 1
GAMG:  Solving for p, Initial residual = 7.3243305e-07, Final residual = 7.3243305e-07, No Iterations 0
time step continuity errors : sum local = 2.3464624e-12, global = -2.7618538e-20, cumulative = -5.663389e-19
Pressure gradient source: uncorrected Ubar = 0.66666667, pressure gradient = 0.00038289825
GAMG:  Solving for p, Initial residual = 8.0464152e-07, Final residual = 8.0464152e-07, No Iterations 0
GAMG:  Solving for p, Initial residual = 8.0464152e-07, Final residual = 8.0464152e-07, No Iterations 0
time step continuity errors : sum local = 2.5763588e-12, global = -2.3225212e-20, cumulative = -5.8956411e-19
Pressure gradient source: uncorrected Ubar = 0.66666667, pressure gradient = 0.00038289826
GAMG:  Solving for p, Initial residual = 8.0400384e-07, Final residual = 8.0400384e-07, No Iterations 0
GAMG:  Solving for p, Initial residual = 8.0400384e-07, Final residual = 8.0400384e-07, No Iterations 0
time step continuity errors : sum local = 2.5743285e-12, global = -3.3723449e-20, cumulative = -6.2328756e-19
Pressure gradient source: uncorrected Ubar = 0.66666667, pressure gradient = 0.00038289826
GAMG:  Solving for p, Initial residual = 8.0382707e-07, Final residual = 8.0382707e-07, No Iterations 0
GAMG:  Solving for p, Initial residual = 8.0382707e-07, Final residual = 8.0382707e-07, No Iterations 0
time step continuity errors : sum local = 2.5737658e-12, global = 5.7431803e-21, cumulative = -6.1754438e-19
Pressure gradient source: uncorrected Ubar = 0.66666667, pressure gradient = 0.00038289826
GAMG:  Solving for p, Initial residual = 8.0382737e-07, Final residual = 8.0382737e-07, No Iterations 0
GAMG:  Solving for p, Initial residual = 8.0382737e-07, Final residual = 8.0382737e-07, No Iterations 0
time step continuity errors : sum local = 2.5737667e-12, global = 1.9018189e-20, cumulative = -5.9852619e-19
Pressure gradient source: uncorrected Ubar = 0.66666667, pressure gradient = 0.00038289826
PIMPLE: converged in 3 iterations
ExecutionTime = 2.72 s  ClockTime = 3 s

Computing Re tau field

Patch id top: 1
sumReTau 99311.399
nodes: 1024
Average ReTau: 96.983788
Courant Number mean: 0.057833313 max: 0.086194328
deltaT = 0.017915904
Time = 0.077495424

PIMPLE: iteration 1
DILUPBiCG:  Solving for Ux, Initial residual = 7.4414161e-05, Final residual = 1.0189457e-07, No Iterations 1
DILUPBiCG:  Solving for Uy, Initial residual = 0.003229056, Final residual = 1.2308839e-05, No Iterations 1
DILUPBiCG:  Solving for Uz, Initial residual = 0.009837147, Final residual = 6.4195578e-05, No Iterations 1
Pressure gradient source: uncorrected Ubar = 0.66666666, pressure gradient = 0.00038321752
GAMG:  Solving for p, Initial residual = 0.0043176436, Final residual = 1.9399755e-05, No Iterations 3
GAMG:  Solving for p, Initial residual = 1.9404166e-05, Final residual = 6.0032999e-06, No Iterations 1
time step continuity errors : sum local = 2.7562794e-11, global = -4.2428297e-20, cumulative = -6.4095449e-19
Pressure gradient source: uncorrected Ubar = 0.66666666, pressure gradient = 0.00038324205
GAMG:  Solving for p, Initial residual = 0.0001793558, Final residual = 5.0117161e-06, No Iterations 1
GAMG:  Solving for p, Initial residual = 5.0116237e-06, Final residual = 5.0116237e-06, No Iterations 0
time step continuity errors : sum local = 2.3017187e-11, global = -5.1739579e-20, cumulative = -6.9269407e-19
Pressure gradient source: uncorrected Ubar = 0.66666666, pressure gradient = 0.00038324202
GAMG:  Solving for p, Initial residual = 7.9909658e-06, Final residual = 7.9909658e-06, No Iterations 0
GAMG:  Solving for p, Initial residual = 7.9909658e-06, Final residual = 7.9909658e-06, No Iterations 0
time step continuity errors : sum local = 3.6666947e-11, global = -6.0014237e-20, cumulative = -7.527083e-19
Pressure gradient source: uncorrected Ubar = 0.66666666, pressure gradient = 0.00038324202
GAMG:  Solving for p, Initial residual = 7.9915545e-06, Final residual = 7.9915545e-06, No Iterations 0
GAMG:  Solving for p, Initial residual = 7.9915545e-06, Final residual = 7.9915545e-06, No Iterations 0
time step continuity errors : sum local = 3.6669644e-11, global = -3.7514157e-20, cumulative = -7.9022246e-19
Pressure gradient source: uncorrected Ubar = 0.66666666, pressure gradient = 0.00038324202
GAMG:  Solving for p, Initial residual = 7.9783095e-06, Final residual = 7.9783095e-06, No Iterations 0
GAMG:  Solving for p, Initial residual = 7.9783095e-06, Final residual = 7.1721455e-07, No Iterations 1
time step continuity errors : sum local = 3.2964631e-12, global = -5.5506843e-20, cumulative = -8.4572931e-19
Pressure gradient source: uncorrected Ubar = 0.66666666, pressure gradient = 0.00038324202
PIMPLE: iteration 2
DILUPBiCG:  Solving for Ux, Initial residual = 5.3331373e-07, Final residual = 5.3331373e-07, No Iterations 0
DILUPBiCG:  Solving for Uy, Initial residual = 7.1040433e-06, Final residual = 6.812954e-09, No Iterations 2
DILUPBiCG:  Solving for Uz, Initial residual = 1.0514682e-05, Final residual = 7.9294925e-07, No Iterations 1
Pressure gradient source: uncorrected Ubar = 0.66666667, pressure gradient = 0.00038324202
GAMG:  Solving for p, Initial residual = 0.0032298111, Final residual = 1.8073716e-05, No Iterations 3
GAMG:  Solving for p, Initial residual = 1.8073711e-05, Final residual = 5.5885388e-06, No Iterations 1
time step continuity errors : sum local = 2.5654032e-11, global = -6.5992078e-20, cumulative = -9.1172138e-19
Pressure gradient source: uncorrected Ubar = 0.66666667, pressure gradient = 0.00038324421
GAMG:  Solving for p, Initial residual = 2.054956e-05, Final residual = 2.0448866e-06, No Iterations 1
GAMG:  Solving for p, Initial residual = 2.0448799e-06, Final residual = 2.0448799e-06, No Iterations 0
time step continuity errors : sum local = 9.4378592e-12, global = -2.9214707e-20, cumulative = -9.4093609e-19
Pressure gradient source: uncorrected Ubar = 0.66666667, pressure gradient = 0.00038324214
GAMG:  Solving for p, Initial residual = 2.1780755e-06, Final residual = 2.1780755e-06, No Iterations 0
GAMG:  Solving for p, Initial residual = 2.1780755e-06, Final residual = 2.1780755e-06, No Iterations 0
time step continuity errors : sum local = 1.0048095e-11, global = -4.7674916e-20, cumulative = -9.8861101e-19
Pressure gradient source: uncorrected Ubar = 0.66666667, pressure gradient = 0.00038324211
GAMG:  Solving for p, Initial residual = 2.1748373e-06, Final residual = 2.1748373e-06, No Iterations 0
GAMG:  Solving for p, Initial residual = 2.1748373e-06, Final residual = 2.1748373e-06, No Iterations 0
time step continuity errors : sum local = 1.0033259e-11, global = 4.7514967e-21, cumulative = -9.8385951e-19
Pressure gradient source: uncorrected Ubar = 0.66666667, pressure gradient = 0.00038324211
GAMG:  Solving for p, Initial residual = 2.1741965e-06, Final residual = 2.1741965e-06, No Iterations 0
GAMG:  Solving for p, Initial residual = 2.1741965e-06, Final residual = 5.6734034e-07, No Iterations 1
time step continuity errors : sum local = 2.610076e-12, global = -2.9458574e-20, cumulative = -1.0133181e-18
Pressure gradient source: uncorrected Ubar = 0.66666667, pressure gradient = 0.00038324211
PIMPLE: iteration 3
DILUPBiCG:  Solving for Ux, Initial residual = 2.437447e-09, Final residual = 2.437447e-09, No Iterations 0
DILUPBiCG:  Solving for Uy, Initial residual = 1.2192705e-07, Final residual = 4.0967508e-09, No Iterations 1
DILUPBiCG:  Solving for Uz, Initial residual = 2.0778595e-07, Final residual = 4.8271203e-09, No Iterations 1
Pressure gradient source: uncorrected Ubar = 0.66666667, pressure gradient = 0.00038324211
GAMG:  Solving for p, Initial residual = 3.8762945e-05, Final residual = 1.0383385e-06, No Iterations 1
GAMG:  Solving for p, Initial residual = 1.038335e-06, Final residual = 1.038335e-06, No Iterations 0
time step continuity errors : sum local = 4.7856449e-12, global = -1.2406918e-19, cumulative = -1.1373873e-18
Pressure gradient source: uncorrected Ubar = 0.66666667, pressure gradient = 0.00038324211
GAMG:  Solving for p, Initial residual = 1.1761682e-06, Final residual = 1.1761682e-06, No Iterations 0
GAMG:  Solving for p, Initial residual = 1.1761682e-06, Final residual = 1.1761682e-06, No Iterations 0
time step continuity errors : sum local = 5.4171326e-12, global = -7.3913101e-20, cumulative = -1.2113004e-18
Pressure gradient source: uncorrected Ubar = 0.66666667, pressure gradient = 0.00038324211
GAMG:  Solving for p, Initial residual = 1.1753913e-06, Final residual = 1.1753913e-06, No Iterations 0
GAMG:  Solving for p, Initial residual = 1.1753913e-06, Final residual = 1.1753913e-06, No Iterations 0
time step continuity errors : sum local = 5.4135731e-12, global = -2.6539524e-20, cumulative = -1.2378399e-18
Pressure gradient source: uncorrected Ubar = 0.66666667, pressure gradient = 0.00038324211
GAMG:  Solving for p, Initial residual = 1.1749118e-06, Final residual = 1.1749118e-06, No Iterations 0
GAMG:  Solving for p, Initial residual = 1.1749118e-06, Final residual = 1.1749118e-06, No Iterations 0
time step continuity errors : sum local = 5.4113762e-12, global = -7.3779772e-20, cumulative = -1.3116197e-18
Pressure gradient source: uncorrected Ubar = 0.66666667, pressure gradient = 0.00038324211
GAMG:  Solving for p, Initial residual = 1.1749105e-06, Final residual = 1.1749105e-06, No Iterations 0
GAMG:  Solving for p, Initial residual = 1.1749105e-06, Final residual = 1.6101359e-07, No Iterations 1
time step continuity errors : sum local = 7.4200691e-13, global = -7.2646508e-20, cumulative = -1.3842662e-18
Pressure gradient source: uncorrected Ubar = 0.66666667, pressure gradient = 0.00038324211
PIMPLE: converged in 3 iterations
ExecutionTime = 3.06 s  ClockTime = 3 s

Computing Re tau field

Patch id top: 1
sumReTau 99352.268
nodes: 1024
Average ReTau: 97.023699
Courant Number mean: 0.069399716 max: 0.10343279
deltaT = 0.021499085
Time = 0.098994509

PIMPLE: iteration 1
DILUPBiCG:  Solving for Ux, Initial residual = 8.9244456e-05, Final residual = 1.4623227e-07, No Iterations 1
DILUPBiCG:  Solving for Uy, Initial residual = 0.0038890685, Final residual = 2.0088608e-05, No Iterations 1
DILUPBiCG:  Solving for Uz, Initial residual = 0.011756058, Final residual = 0.00011513982, No Iterations 1
Pressure gradient source: uncorrected Ubar = 0.66666666, pressure gradient = 0.00038361
GAMG:  Solving for p, Initial residual = 0.0046614146, Final residual = 2.3171505e-05, No Iterations 3
GAMG:  Solving for p, Initial residual = 2.3175127e-05, Final residual = 7.1612942e-06, No Iterations 1
time step continuity errors : sum local = 4.7318784e-11, global = -1.0582102e-19, cumulative = -1.4900872e-18
Pressure gradient source: uncorrected Ubar = 0.66666666, pressure gradient = 0.00038364094
GAMG:  Solving for p, Initial residual = 0.00025524504, Final residual = 7.2214546e-06, No Iterations 1
GAMG:  Solving for p, Initial residual = 7.2212708e-06, Final residual = 7.2212708e-06, No Iterations 0
time step continuity errors : sum local = 4.7769868e-11, global = -1.1452796e-19, cumulative = -1.6046151e-18
Pressure gradient source: uncorrected Ubar = 0.66666666, pressure gradient = 0.00038364091
GAMG:  Solving for p, Initial residual = 1.2663193e-05, Final residual = 1.0058353e-06, No Iterations 1
GAMG:  Solving for p, Initial residual = 1.005834e-06, Final residual = 1.005834e-06, No Iterations 0
time step continuity errors : sum local = 6.787502e-12, global = -8.6882461e-20, cumulative = -1.6914976e-18
Pressure gradient source: uncorrected Ubar = 0.66666666, pressure gradient = 0.00038364091
GAMG:  Solving for p, Initial residual = 1.1667106e-06, Final residual = 1.1667106e-06, No Iterations 0
GAMG:  Solving for p, Initial residual = 1.1667106e-06, Final residual = 1.1667106e-06, No Iterations 0
time step continuity errors : sum local = 7.8424844e-12, global = -5.9927048e-20, cumulative = -1.7514247e-18
Pressure gradient source: uncorrected Ubar = 0.66666666, pressure gradient = 0.00038364091
GAMG:  Solving for p, Initial residual = 1.1702079e-06, Final residual = 1.1702079e-06, No Iterations 0
GAMG:  Solving for p, Initial residual = 1.1702079e-06, Final residual = 2.1185704e-07, No Iterations 1
time step continuity errors : sum local = 1.4198566e-12, global = -4.8869766e-20, cumulative = -1.8002944e-18
Pressure gradient source: uncorrected Ubar = 0.66666666, pressure gradient = 0.00038364091
PIMPLE: iteration 2
DILUPBiCG:  Solving for Ux, Initial residual = 7.6981171e-07, Final residual = 7.6981171e-07, No Iterations 0
DILUPBiCG:  Solving for Uy, Initial residual = 1.0258666e-05, Final residual = 1.8293658e-08, No Iterations 2
DILUPBiCG:  Solving for Uz, Initial residual = 1.4727902e-05, Final residual = 1.962563e-08, No Iterations 2
Pressure gradient source: uncorrected Ubar = 0.66666667, pressure gradient = 0.00038364091
GAMG:  Solving for p, Initial residual = 0.0037797986, Final residual = 2.1681558e-05, No Iterations 3
GAMG:  Solving for p, Initial residual = 2.168129e-05, Final residual = 6.6973094e-06, No Iterations 1
time step continuity errors : sum local = 4.4245256e-11, global = -1.0458093e-19, cumulative = -1.9048753e-18
Pressure gradient source: uncorrected Ubar = 0.66666667, pressure gradient = 0.00038364406
GAMG:  Solving for p, Initial residual = 2.9066935e-05, Final residual = 2.5739736e-06, No Iterations 1
GAMG:  Solving for p, Initial residual = 2.5739615e-06, Final residual = 2.5739615e-06, No Iterations 0
time step continuity errors : sum local = 1.7096344e-11, global = -1.1645824e-19, cumulative = -2.0213336e-18
Pressure gradient source: uncorrected Ubar = 0.66666667, pressure gradient = 0.00038364109
GAMG:  Solving for p, Initial residual = 2.8503271e-06, Final residual = 2.8503271e-06, No Iterations 0
GAMG:  Solving for p, Initial residual = 2.8503271e-06, Final residual = 2.8503271e-06, No Iterations 0
time step continuity errors : sum local = 1.8918625e-11, global = -5.7771719e-20, cumulative = -2.0791053e-18
Pressure gradient source: uncorrected Ubar = 0.66666667, pressure gradient = 0.00038364104
GAMG:  Solving for p, Initial residual = 2.8443896e-06, Final residual = 2.8443896e-06, No Iterations 0
GAMG:  Solving for p, Initial residual = 2.8443896e-06, Final residual = 2.8443896e-06, No Iterations 0
time step continuity errors : sum local = 1.8879475e-11, global = -1.5402094e-19, cumulative = -2.2331262e-18
Pressure gradient source: uncorrected Ubar = 0.66666667, pressure gradient = 0.00038364104
GAMG:  Solving for p, Initial residual = 2.8426856e-06, Final residual = 2.8426856e-06, No Iterations 0
GAMG:  Solving for p, Initial residual = 2.8426856e-06, Final residual = 6.8937431e-07, No Iterations 1
time step continuity errors : sum local = 4.5649012e-12, global = -8.4263351e-20, cumulative = -2.3173896e-18
Pressure gradient source: uncorrected Ubar = 0.66666667, pressure gradient = 0.00038364104
PIMPLE: iteration 3
DILUPBiCG:  Solving for Ux, Initial residual = 4.1874248e-09, Final residual = 4.1874248e-09, No Iterations 0
DILUPBiCG:  Solving for Uy, Initial residual = 2.0610246e-07, Final residual = 1.3259794e-09, No Iterations 2
DILUPBiCG:  Solving for Uz, Initial residual = 3.5682244e-07, Final residual = 3.253543e-10, No Iterations 2
Pressure gradient source: uncorrected Ubar = 0.66666667, pressure gradient = 0.00038364104
GAMG:  Solving for p, Initial residual = 5.4484819e-05, Final residual = 1.4723965e-06, No Iterations 1
GAMG:  Solving for p, Initial residual = 1.4723893e-06, Final residual = 1.4723893e-06, No Iterations 0
time step continuity errors : sum local = 9.7648169e-12, global = -8.4307132e-20, cumulative = -2.4016967e-18
Pressure gradient source: uncorrected Ubar = 0.66666667, pressure gradient = 0.00038364103
GAMG:  Solving for p, Initial residual = 1.7667254e-06, Final residual = 1.7667254e-06, No Iterations 0
GAMG:  Solving for p, Initial residual = 1.7667254e-06, Final residual = 1.7667254e-06, No Iterations 0
time step continuity errors : sum local = 1.1705612e-11, global = -6.4405464e-20, cumulative = -2.4661022e-18
Pressure gradient source: uncorrected Ubar = 0.66666667, pressure gradient = 0.00038364104
GAMG:  Solving for p, Initial residual = 1.7655222e-06, Final residual = 1.7655222e-06, No Iterations 0
GAMG:  Solving for p, Initial residual = 1.7655222e-06, Final residual = 1.7655222e-06, No Iterations 0
time step continuity errors : sum local = 1.1697678e-11, global = -7.6389475e-20, cumulative = -2.5424917e-18
Pressure gradient source: uncorrected Ubar = 0.66666667, pressure gradient = 0.00038364104
GAMG:  Solving for p, Initial residual = 1.7641181e-06, Final residual = 1.7641181e-06, No Iterations 0
GAMG:  Solving for p, Initial residual = 1.7641181e-06, Final residual = 1.7641181e-06, No Iterations 0
time step continuity errors : sum local = 1.168842e-11, global = -1.1159297e-19, cumulative = -2.6540846e-18
Pressure gradient source: uncorrected Ubar = 0.66666667, pressure gradient = 0.00038364104
GAMG:  Solving for p, Initial residual = 1.7641134e-06, Final residual = 1.7641134e-06, No Iterations 0
GAMG:  Solving for p, Initial residual = 1.7641134e-06, Final residual = 2.2260393e-07, No Iterations 1
time step continuity errors : sum local = 1.4762939e-12, global = -6.5045332e-20, cumulative = -2.71913e-18
Pressure gradient source: uncorrected Ubar = 0.66666667, pressure gradient = 0.00038364104
PIMPLE: converged in 3 iterations
ExecutionTime = 3.53 s  ClockTime = 4 s

Computing Re tau field

Patch id top: 1
sumReTau 99399.568
nodes: 1024
Average ReTau: 97.069891
Courant Number mean: 0.083279285 max: 0.12411866
deltaT = 0.025798902
Time = 0.12479341

PIMPLE: iteration 1
DILUPBiCG:  Solving for Ux, Initial residual = 0.00010704961, Final residual = 2.1175924e-07, No Iterations 1
DILUPBiCG:  Solving for Uy, Initial residual = 0.0046832629, Final residual = 3.2784732e-05, No Iterations 1
DILUPBiCG:  Solving for Uz, Initial residual = 0.014069556, Final residual = 0.00020434424, No Iterations 1
Pressure gradient source: uncorrected Ubar = 0.66666666, pressure gradient = 0.00038406161
GAMG:  Solving for p, Initial residual = 0.005299197, Final residual = 2.7693963e-05, No Iterations 3
GAMG:  Solving for p, Initial residual = 2.7695368e-05, Final residual = 8.5519099e-06, No Iterations 1
time step continuity errors : sum local = 8.1341702e-11, global = -1.1506365e-19, cumulative = -2.8341936e-18
Pressure gradient source: uncorrected Ubar = 0.66666666, pressure gradient = 0.00038410069
GAMG:  Solving for p, Initial residual = 0.00036711281, Final residual = 1.4256937e-06, No Iterations 2
GAMG:  Solving for p, Initial residual = 1.4256405e-06, Final residual = 1.4256405e-06, No Iterations 0
time step continuity errors : sum local = 1.359295e-11, global = -9.1644562e-20, cumulative = -2.9258382e-18
Pressure gradient source: uncorrected Ubar = 0.66666666, pressure gradient = 0.00038410065
GAMG:  Solving for p, Initial residual = 1.5022512e-05, Final residual = 3.8896805e-07, No Iterations 1
GAMG:  Solving for p, Initial residual = 3.8896791e-07, Final residual = 3.8896791e-07, No Iterations 0
time step continuity errors : sum local = 3.7858995e-12, global = -1.9890443e-19, cumulative = -3.1247426e-18
Pressure gradient source: uncorrected Ubar = 0.66666666, pressure gradient = 0.00038410065
GAMG:  Solving for p, Initial residual = 1.0101482e-06, Final residual = 1.0101482e-06, No Iterations 0
GAMG:  Solving for p, Initial residual = 1.0101482e-06, Final residual = 1.0101482e-06, No Iterations 0
time step continuity errors : sum local = 9.6675754e-12, global = -1.3905093e-19, cumulative = -3.2637935e-18
Pressure gradient source: uncorrected Ubar = 0.66666666, pressure gradient = 0.00038410065
GAMG:  Solving for p, Initial residual = 1.0129031e-06, Final residual = 1.0129031e-06, No Iterations 0
GAMG:  Solving for p, Initial residual = 1.0129031e-06, Final residual = 8.6012121e-08, No Iterations 1
time step continuity errors : sum local = 8.2896296e-13, global = -1.5671098e-19, cumulative = -3.4205045e-18
Pressure gradient source: uncorrected Ubar = 0.66666666, pressure gradient = 0.00038410065
PIMPLE: iteration 2
DILUPBiCG:  Solving for Ux, Initial residual = 1.1113144e-06, Final residual = 1.2992642e-08, No Iterations 1
DILUPBiCG:  Solving for Uy, Initial residual = 1.4862608e-05, Final residual = 5.4909664e-08, No Iterations 2
DILUPBiCG:  Solving for Uz, Initial residual = 2.0785633e-05, Final residual = 3.7721553e-08, No Iterations 2
Pressure gradient source: uncorrected Ubar = 0.66666667, pressure gradient = 0.00038410256
GAMG:  Solving for p, Initial residual = 0.0043858801, Final residual = 2.6121957e-05, No Iterations 3
GAMG:  Solving for p, Initial residual = 2.6122425e-05, Final residual = 8.051103e-06, No Iterations 1
time step continuity errors : sum local = 7.6552674e-11, global = -1.2112963e-19, cumulative = -3.5416342e-18
Pressure gradient source: uncorrected Ubar = 0.66666667, pressure gradient = 0.00038410079
GAMG:  Solving for p, Initial residual = 0.00013250538, Final residual = 7.6688338e-06, No Iterations 1
GAMG:  Solving for p, Initial residual = 7.6685639e-06, Final residual = 7.6685639e-06, No Iterations 0
time step continuity errors : sum local = 7.3139152e-11, global = -9.3416345e-20, cumulative = -3.6350505e-18
Pressure gradient source: uncorrected Ubar = 0.66666667, pressure gradient = 0.00038410084
GAMG:  Solving for p, Initial residual = 8.8075426e-06, Final residual = 8.8075426e-06, No Iterations 0
GAMG:  Solving for p, Initial residual = 8.8075426e-06, Final residual = 8.8075426e-06, No Iterations 0
time step continuity errors : sum local = 8.3949671e-11, global = -3.0516427e-20, cumulative = -3.6655669e-18
Pressure gradient source: uncorrected Ubar = 0.66666667, pressure gradient = 0.00038410084
GAMG:  Solving for p, Initial residual = 8.7527375e-06, Final residual = 8.7527375e-06, No Iterations 0
GAMG:  Solving for p, Initial residual = 8.7527375e-06, Final residual = 8.7527375e-06, No Iterations 0
time step continuity errors : sum local = 8.3429492e-11, global = -1.0152022e-19, cumulative = -3.7670871e-18
Pressure gradient source: uncorrected Ubar = 0.66666667, pressure gradient = 0.00038410084
GAMG:  Solving for p, Initial residual = 8.7380278e-06, Final residual = 8.7380278e-06, No Iterations 0
GAMG:  Solving for p, Initial residual = 8.7380278e-06, Final residual = 2.8622134e-07, No Iterations 2
time step continuity errors : sum local = 2.725518e-12, global = -1.6380002e-19, cumulative = -3.9308872e-18
Pressure gradient source: uncorrected Ubar = 0.66666667, pressure gradient = 0.00038410084
PIMPLE: iteration 3
DILUPBiCG:  Solving for Ux, Initial residual = 7.1468359e-09, Final residual = 7.1468359e-09, No Iterations 0
DILUPBiCG:  Solving for Uy, Initial residual = 3.5982541e-07, Final residual = 1.3688923e-09, No Iterations 2
DILUPBiCG:  Solving for Uz, Initial residual = 6.5856948e-07, Final residual = 9.0160069e-10, No Iterations 2
Pressure gradient source: uncorrected Ubar = 0.66666667, pressure gradient = 0.00038410084
GAMG:  Solving for p, Initial residual = 7.7135892e-05, Final residual = 1.9905515e-06, No Iterations 1
GAMG:  Solving for p, Initial residual = 1.9905376e-06, Final residual = 1.9905376e-06, No Iterations 0
time step continuity errors : sum local = 1.8977713e-11, global = -7.4372018e-20, cumulative = -4.0052592e-18
Pressure gradient source: uncorrected Ubar = 0.66666667, pressure gradient = 0.00038410083
GAMG:  Solving for p, Initial residual = 2.5663228e-06, Final residual = 2.5663228e-06, No Iterations 0
GAMG:  Solving for p, Initial residual = 2.5663228e-06, Final residual = 2.5663228e-06, No Iterations 0
time step continuity errors : sum local = 2.4442816e-11, global = -8.1269298e-20, cumulative = -4.0865285e-18
Pressure gradient source: uncorrected Ubar = 0.66666667, pressure gradient = 0.00038410084
GAMG:  Solving for p, Initial residual = 2.5660677e-06, Final residual = 2.5660677e-06, No Iterations 0
GAMG:  Solving for p, Initial residual = 2.5660677e-06, Final residual = 2.5660677e-06, No Iterations 0
time step continuity errors : sum local = 2.4440394e-11, global = -5.6695383e-20, cumulative = -4.1432239e-18
Pressure gradient source: uncorrected Ubar = 0.66666667, pressure gradient = 0.00038410084
GAMG:  Solving for p, Initial residual = 2.5622853e-06, Final residual = 2.5622853e-06, No Iterations 0
GAMG:  Solving for p, Initial residual = 2.5622853e-06, Final residual = 2.5622853e-06, No Iterations 0
time step continuity errors : sum local = 2.4404493e-11, global = -1.1276361e-19, cumulative = -4.2559875e-18
Pressure gradient source: uncorrected Ubar = 0.66666667, pressure gradient = 0.00038410084
GAMG:  Solving for p, Initial residual = 2.5622594e-06, Final residual = 2.5622594e-06, No Iterations 0
GAMG:  Solving for p, Initial residual = 2.5622594e-06, Final residual = 2.8300413e-07, No Iterations 1
time step continuity errors : sum local = 2.6987682e-12, global = -6.9001538e-20, cumulative = -4.324989e-18
Pressure gradient source: uncorrected Ubar = 0.66666667, pressure gradient = 0.00038410084
PIMPLE: converged in 3 iterations
ExecutionTime = 4.01 s  ClockTime = 4 s

Computing Re tau field

Patch id top: 1
sumReTau 99453.932
nodes: 1024
Average ReTau: 97.122981
Courant Number mean: 0.099934657 max: 0.14894116
deltaT = 0.030958682
Time = 0.15575209

PIMPLE: iteration 1
DILUPBiCG:  Solving for Ux, Initial residual = 0.00012845035, Final residual = 3.096905e-07, No Iterations 1
DILUPBiCG:  Solving for Uy, Initial residual = 0.0056327306, Final residual = 5.3298484e-05, No Iterations 1
DILUPBiCG:  Solving for Uz, Initial residual = 0.016848905, Final residual = 0.00036333421, No Iterations 1
Pressure gradient source: uncorrected Ubar = 0.66666666, pressure gradient = 0.0003845771
GAMG:  Solving for p, Initial residual = 0.0060994603, Final residual = 3.3551769e-05, No Iterations 3
GAMG:  Solving for p, Initial residual = 3.35539e-05, Final residual = 3.2389237e-06, No Iterations 2
time step continuity errors : sum local = 4.4556776e-11, global = -1.6728927e-19, cumulative = -4.4922783e-18
Pressure gradient source: uncorrected Ubar = 0.66666666, pressure gradient = 0.00038462648
GAMG:  Solving for p, Initial residual = 0.00052952789, Final residual = 2.4896283e-06, No Iterations 2
GAMG:  Solving for p, Initial residual = 2.4894986e-06, Final residual = 2.4894986e-06, No Iterations 0
time step continuity errors : sum local = 3.4155014e-11, global = -3.5483634e-20, cumulative = -4.5277619e-18
Pressure gradient source: uncorrected Ubar = 0.66666666, pressure gradient = 0.00038462644
GAMG:  Solving for p, Initial residual = 2.6081914e-05, Final residual = 7.5907304e-07, No Iterations 1
GAMG:  Solving for p, Initial residual = 7.5907264e-07, Final residual = 7.5907264e-07, No Iterations 0
time step continuity errors : sum local = 1.0596915e-11, global = -1.9795032e-19, cumulative = -4.7257122e-18
Pressure gradient source: uncorrected Ubar = 0.66666666, pressure gradient = 0.00038462644
GAMG:  Solving for p, Initial residual = 2.0983566e-06, Final residual = 2.0983566e-06, No Iterations 0
GAMG:  Solving for p, Initial residual = 2.0983566e-06, Final residual = 2.0983566e-06, No Iterations 0
time step continuity errors : sum local = 2.8851186e-11, global = -6.2482474e-20, cumulative = -4.7881947e-18
Pressure gradient source: uncorrected Ubar = 0.66666666, pressure gradient = 0.00038462644
GAMG:  Solving for p, Initial residual = 2.1049554e-06, Final residual = 2.1049554e-06, No Iterations 0
GAMG:  Solving for p, Initial residual = 2.1049554e-06, Final residual = 1.8236757e-07, No Iterations 1
time step continuity errors : sum local = 2.5208046e-12, global = -1.5353851e-19, cumulative = -4.9417332e-18
Pressure gradient source: uncorrected Ubar = 0.66666666, pressure gradient = 0.00038462644
PIMPLE: iteration 2
DILUPBiCG:  Solving for Ux, Initial residual = 1.6033277e-06, Final residual = 1.7273002e-08, No Iterations 1
DILUPBiCG:  Solving for Uy, Initial residual = 2.1145271e-05, Final residual = 1.953939e-07, No Iterations 2
DILUPBiCG:  Solving for Uz, Initial residual = 3.0241437e-05, Final residual = 7.1850626e-08, No Iterations 2
Pressure gradient source: uncorrected Ubar = 0.66666667, pressure gradient = 0.00038462919
GAMG:  Solving for p, Initial residual = 0.0051778603, Final residual = 3.1375301e-05, No Iterations 3
GAMG:  Solving for p, Initial residual = 3.13765e-05, Final residual = 9.6553311e-06, No Iterations 1
time step continuity errors : sum local = 1.3213046e-10, global = -1.8400085e-19, cumulative = -5.1257341e-18
Pressure gradient source: uncorrected Ubar = 0.66666667, pressure gradient = 0.00038462664
GAMG:  Solving for p, Initial residual = 0.00018889266, Final residual = 1.6321665e-06, No Iterations 2
GAMG:  Solving for p, Initial residual = 1.6320815e-06, Final residual = 1.6320815e-06, No Iterations 0
time step continuity errors : sum local = 2.2403305e-11, global = -1.1329692e-19, cumulative = -5.239031e-18
Pressure gradient source: uncorrected Ubar = 0.66666667, pressure gradient = 0.00038462671
GAMG:  Solving for p, Initial residual = 5.9635035e-06, Final residual = 5.9635035e-06, No Iterations 0
GAMG:  Solving for p, Initial residual = 5.9635035e-06, Final residual = 5.9635035e-06, No Iterations 0
time step continuity errors : sum local = 8.1576937e-11, global = -6.0445862e-20, cumulative = -5.2994769e-18
Pressure gradient source: uncorrected Ubar = 0.66666667, pressure gradient = 0.00038462671
GAMG:  Solving for p, Initial residual = 5.9629708e-06, Final residual = 5.9629708e-06, No Iterations 0
GAMG:  Solving for p, Initial residual = 5.9629708e-06, Final residual = 5.9629708e-06, No Iterations 0
time step continuity errors : sum local = 8.1569659e-11, global = -1.6374363e-19, cumulative = -5.4632205e-18
Pressure gradient source: uncorrected Ubar = 0.66666667, pressure gradient = 0.00038462671
GAMG:  Solving for p, Initial residual = 5.918752e-06, Final residual = 5.918752e-06, No Iterations 0
GAMG:  Solving for p, Initial residual = 5.918752e-06, Final residual = 3.8375011e-07, No Iterations 1
time step continuity errors : sum local = 5.2601794e-12, global = -1.3341566e-19, cumulative = -5.5966361e-18
Pressure gradient source: uncorrected Ubar = 0.66666667, pressure gradient = 0.00038462671
PIMPLE: iteration 3
DILUPBiCG:  Solving for Ux, Initial residual = 1.2081778e-08, Final residual = 1.825189e-10, No Iterations 1
DILUPBiCG:  Solving for Uy, Initial residual = 6.2911162e-07, Final residual = 2.1360671e-09, No Iterations 2
DILUPBiCG:  Solving for Uz, Initial residual = 1.0774611e-06, Final residual = 2.1120381e-09, No Iterations 2
Pressure gradient source: uncorrected Ubar = 0.66666667, pressure gradient = 0.00038462666
GAMG:  Solving for p, Initial residual = 0.00011190484, Final residual = 2.8486721e-06, No Iterations 1
GAMG:  Solving for p, Initial residual = 2.8486442e-06, Final residual = 2.8486442e-06, No Iterations 0
time step continuity errors : sum local = 3.9095471e-11, global = -1.1337868e-19, cumulative = -5.7100148e-18
Pressure gradient source: uncorrected Ubar = 0.66666667, pressure gradient = 0.00038462671
GAMG:  Solving for p, Initial residual = 6.3048288e-06, Final residual = 6.3048288e-06, No Iterations 0
GAMG:  Solving for p, Initial residual = 6.3048288e-06, Final residual = 6.3048288e-06, No Iterations 0
time step continuity errors : sum local = 8.631303e-11, global = -1.3776089e-19, cumulative = -5.8477757e-18
Pressure gradient source: uncorrected Ubar = 0.66666667, pressure gradient = 0.00038462671
GAMG:  Solving for p, Initial residual = 6.4309025e-06, Final residual = 6.4309025e-06, No Iterations 0
GAMG:  Solving for p, Initial residual = 6.4309025e-06, Final residual = 6.4309025e-06, No Iterations 0
time step continuity errors : sum local = 8.8035419e-11, global = -5.9956534e-20, cumulative = -5.9077322e-18
Pressure gradient source: uncorrected Ubar = 0.66666667, pressure gradient = 0.00038462671
GAMG:  Solving for p, Initial residual = 6.3975453e-06, Final residual = 6.3975453e-06, No Iterations 0
GAMG:  Solving for p, Initial residual = 6.3975453e-06, Final residual = 6.3975453e-06, No Iterations 0
time step continuity errors : sum local = 8.7579702e-11, global = -1.3837664e-19, cumulative = -6.0461089e-18
Pressure gradient source: uncorrected Ubar = 0.66666667, pressure gradient = 0.00038462671
GAMG:  Solving for p, Initial residual = 6.3960573e-06, Final residual = 6.3960573e-06, No Iterations 0
GAMG:  Solving for p, Initial residual = 6.3960573e-06, Final residual = 4.2778264e-07, No Iterations 1
time step continuity errors : sum local = 5.8708131e-12, global = -1.0371304e-19, cumulative = -6.1498219e-18
Pressure gradient source: uncorrected Ubar = 0.66666667, pressure gradient = 0.00038462671
PIMPLE: converged in 3 iterations
ExecutionTime = 4.48 s  ClockTime = 5 s

Computing Re tau field

Patch id top: 1
sumReTau 99515.902
nodes: 1024
Average ReTau: 97.183498
Courant Number mean: 0.11992097 max: 0.17872715
deltaT = 0.037150419
Time = 0.19290251

PIMPLE: iteration 1
DILUPBiCG:  Solving for Ux, Initial residual = 0.00015414439, Final residual = 4.5537443e-07, No Iterations 1
[...]
time step continuity errors : sum local = 1.9643112e-11, global = 1.9571602e-18, cumulative = 4.5519479e-16
Pressure gradient source: uncorrected Ubar = 0.66666667, pressure gradient = 0.00039779584
PIMPLE: converged in 3 iterations
ExecutionTime = 31.34 s  ClockTime = 32 s

Computing Re tau field

Patch id top: 1
sumReTau 100987.64
nodes: 1024
Average ReTau: 98.620742
Courant Number mean: 0.2684811 max: 0.39997569
deltaT = 0.069319879
Time = 4.8457259

PIMPLE: iteration 1
DILUPBiCG:  Solving for Ux, Initial residual = 0.00028824553, Final residual = 3.4399923e-06, No Iterations 1
DILUPBiCG:  Solving for Uy, Initial residual = 0.011099317, Final residual = 0.00013015739, No Iterations 1
DILUPBiCG:  Solving for Uz, Initial residual = 0.033438148, Final residual = 0.00062034977, No Iterations 1
Pressure gradient source: uncorrected Ubar = 0.66666666, pressure gradient = 0.00039798302
GAMG:  Solving for p, Initial residual = 0.010765032, Final residual = 7.3160796e-05, No Iterations 3
GAMG:  Solving for p, Initial residual = 7.3162047e-05, Final residual = 7.2266691e-06, No Iterations 2
time step continuity errors : sum local = 5.0869151e-10, global = 1.6115804e-18, cumulative = 4.5680637e-16
Pressure gradient source: uncorrected Ubar = 0.66666667, pressure gradient = 0.00039783093
GAMG:  Solving for p, Initial residual = 0.0033636734, Final residual = 9.2140071e-06, No Iterations 2
GAMG:  Solving for p, Initial residual = 9.2101832e-06, Final residual = 9.2101832e-06, No Iterations 0
time step continuity errors : sum local = 6.5140201e-10, global = 1.8469297e-18, cumulative = 4.586533e-16
Pressure gradient source: uncorrected Ubar = 0.66666666, pressure gradient = 0.00039783625
GAMG:  Solving for p, Initial residual = 0.00033603692, Final residual = 4.7884113e-06, No Iterations 1
GAMG:  Solving for p, Initial residual = 4.788294e-06, Final residual = 4.788294e-06, No Iterations 0
time step continuity errors : sum local = 3.4148388e-10, global = 1.9621515e-18, cumulative = 4.6061545e-16
Pressure gradient source: uncorrected Ubar = 0.66666666, pressure gradient = 0.00039783633
GAMG:  Solving for p, Initial residual = 4.4620885e-05, Final residual = 9.9915414e-07, No Iterations 1
GAMG:  Solving for p, Initial residual = 9.9915392e-07, Final residual = 9.9915392e-07, No Iterations 0
time step continuity errors : sum local = 7.4790107e-11, global = 1.8906133e-18, cumulative = 4.6250606e-16
Pressure gradient source: uncorrected Ubar = 0.66666666, pressure gradient = 0.00039783633
GAMG:  Solving for p, Initial residual = 7.1640125e-06, Final residual = 7.1640125e-06, No Iterations 0
GAMG:  Solving for p, Initial residual = 7.1640125e-06, Final residual = 2.6768553e-07, No Iterations 1
time step continuity errors : sum local = 1.9517273e-11, global = 1.9123112e-18, cumulative = 4.6441837e-16
Pressure gradient source: uncorrected Ubar = 0.66666666, pressure gradient = 0.00039783633
PIMPLE: iteration 2
DILUPBiCG:  Solving for Ux, Initial residual = 7.6952441e-06, Final residual = 1.833824e-07, No Iterations 1
DILUPBiCG:  Solving for Uy, Initial residual = 6.7576913e-05, Final residual = 1.0921022e-06, No Iterations 2
DILUPBiCG:  Solving for Uz, Initial residual = 0.00078570644, Final residual = 1.0340359e-05, No Iterations 2
Pressure gradient source: uncorrected Ubar = 0.66666667, pressure gradient = 0.00039782568
GAMG:  Solving for p, Initial residual = 0.0067564727, Final residual = 2.1073499e-05, No Iterations 4
GAMG:  Solving for p, Initial residual = 2.1073935e-05, Final residual = 6.645443e-06, No Iterations 1
time step continuity errors : sum local = 4.6828365e-10, global = 1.8323932e-18, cumulative = 4.6625077e-16
Pressure gradient source: uncorrected Ubar = 0.66666667, pressure gradient = 0.00039783669
GAMG:  Solving for p, Initial residual = 0.00041233531, Final residual = 5.5539644e-06, No Iterations 2
GAMG:  Solving for p, Initial residual = 5.5523437e-06, Final residual = 5.5523437e-06, No Iterations 0
time step continuity errors : sum local = 3.9112257e-10, global = 1.7125045e-18, cumulative = 4.6796327e-16
Pressure gradient source: uncorrected Ubar = 0.66666667, pressure gradient = 0.00039783746
GAMG:  Solving for p, Initial residual = 2.5409031e-05, Final residual = 1.4793914e-06, No Iterations 1
GAMG:  Solving for p, Initial residual = 1.479388e-06, Final residual = 1.479388e-06, No Iterations 0
time step continuity errors : sum local = 1.0464354e-10, global = 1.8536595e-18, cumulative = 4.6981693e-16
Pressure gradient source: uncorrected Ubar = 0.66666667, pressure gradient = 0.00039783741
GAMG:  Solving for p, Initial residual = 3.1735984e-06, Final residual = 3.1735984e-06, No Iterations 0
GAMG:  Solving for p, Initial residual = 3.1735984e-06, Final residual = 3.1735984e-06, No Iterations 0
time step continuity errors : sum local = 2.2381195e-10, global = 1.7875021e-18, cumulative = 4.7160443e-16
Pressure gradient source: uncorrected Ubar = 0.66666667, pressure gradient = 0.00039783741
GAMG:  Solving for p, Initial residual = 3.2124051e-06, Final residual = 3.2124051e-06, No Iterations 0
GAMG:  Solving for p, Initial residual = 3.2124051e-06, Final residual = 3.9807726e-07, No Iterations 1
time step continuity errors : sum local = 2.8093112e-11, global = 1.6835035e-18, cumulative = 4.7328794e-16
Pressure gradient source: uncorrected Ubar = 0.66666667, pressure gradient = 0.00039783741
PIMPLE: iteration 3
DILUPBiCG:  Solving for Ux, Initial residual = 9.7494851e-08, Final residual = 1.4901426e-09, No Iterations 1
DILUPBiCG:  Solving for Uy, Initial residual = 4.1829184e-06, Final residual = 4.6033798e-10, No Iterations 3
DILUPBiCG:  Solving for Uz, Initial residual = 4.9359122e-05, Final residual = 2.6353689e-09, No Iterations 3
Pressure gradient source: uncorrected Ubar = 0.66666667, pressure gradient = 0.00039783856
GAMG:  Solving for p, Initial residual = 0.00025947032, Final residual = 6.1360805e-06, No Iterations 1
GAMG:  Solving for p, Initial residual = 6.1360506e-06, Final residual = 6.1360506e-06, No Iterations 0
time step continuity errors : sum local = 4.3274425e-10, global = 1.8231668e-18, cumulative = 4.751111e-16
Pressure gradient source: uncorrected Ubar = 0.66666667, pressure gradient = 0.00039783749
GAMG:  Solving for p, Initial residual = 1.9874819e-05, Final residual = 1.1694204e-06, No Iterations 1
GAMG:  Solving for p, Initial residual = 1.1694181e-06, Final residual = 1.1694181e-06, No Iterations 0
time step continuity errors : sum local = 8.2887671e-11, global = 1.9623206e-18, cumulative = 4.7707342e-16
Pressure gradient source: uncorrected Ubar = 0.66666667, pressure gradient = 0.00039783742
GAMG:  Solving for p, Initial residual = 2.3181229e-06, Final residual = 2.3181229e-06, No Iterations 0
GAMG:  Solving for p, Initial residual = 2.3181229e-06, Final residual = 2.3181229e-06, No Iterations 0
time step continuity errors : sum local = 1.636897e-10, global = 2.0219258e-18, cumulative = 4.7909535e-16
Pressure gradient source: uncorrected Ubar = 0.66666667, pressure gradient = 0.00039783742
GAMG:  Solving for p, Initial residual = 2.356636e-06, Final residual = 2.356636e-06, No Iterations 0
GAMG:  Solving for p, Initial residual = 2.356636e-06, Final residual = 2.356636e-06, No Iterations 0
time step continuity errors : sum local = 1.6640706e-10, global = 1.8148993e-18, cumulative = 4.8091025e-16
Pressure gradient source: uncorrected Ubar = 0.66666667, pressure gradient = 0.00039783742
GAMG:  Solving for p, Initial residual = 2.2994827e-06, Final residual = 2.2994827e-06, No Iterations 0
GAMG:  Solving for p, Initial residual = 2.2994827e-06, Final residual = 2.8166689e-07, No Iterations 1
time step continuity errors : sum local = 1.9910584e-11, global = 1.7668541e-18, cumulative = 4.826771e-16
Pressure gradient source: uncorrected Ubar = 0.66666667, pressure gradient = 0.00039783742
PIMPLE: converged in 3 iterations
ExecutionTime = 31.79 s  ClockTime = 32 s

Computing Re tau field

Patch id top: 1
sumReTau 100992.54
nodes: 1024
Average ReTau: 98.625526
Courant Number mean: 0.26849062 max: 0.39996068
deltaT = 0.069326694
Time = 4.9150526

PIMPLE: iteration 1
DILUPBiCG:  Solving for Ux, Initial residual = 0.00028882478, Final residual = 3.4195667e-06, No Iterations 1
DILUPBiCG:  Solving for Uy, Initial residual = 0.011104271, Final residual = 0.00013286467, No Iterations 1
DILUPBiCG:  Solving for Uz, Initial residual = 0.033424467, Final residual = 0.0005949507, No Iterations 1
Pressure gradient source: uncorrected Ubar = 0.66666666, pressure gradient = 0.0003980471
GAMG:  Solving for p, Initial residual = 0.012240305, Final residual = 8.0723849e-05, No Iterations 3
GAMG:  Solving for p, Initial residual = 8.0650783e-05, Final residual = 7.8990043e-06, No Iterations 2
time step continuity errors : sum local = 5.5781737e-10, global = 1.9379391e-18, cumulative = 4.8461504e-16
Pressure gradient source: uncorrected Ubar = 0.66666667, pressure gradient = 0.00039787347
GAMG:  Solving for p, Initial residual = 0.0035932381, Final residual = 1.1004692e-05, No Iterations 2
GAMG:  Solving for p, Initial residual = 1.1000218e-05, Final residual = 2.4500092e-06, No Iterations 1
time step continuity errors : sum local = 1.7350908e-10, global = 1.8398399e-18, cumulative = 4.8645488e-16
Pressure gradient source: uncorrected Ubar = 0.66666666, pressure gradient = 0.00039787719
GAMG:  Solving for p, Initial residual = 0.00034568924, Final residual = 4.5076327e-06, No Iterations 1
GAMG:  Solving for p, Initial residual = 4.5075111e-06, Final residual = 4.5075111e-06, No Iterations 0
time step continuity errors : sum local = 3.195603e-10, global = 1.7311093e-18, cumulative = 4.8818599e-16
Pressure gradient source: uncorrected Ubar = 0.66666666, pressure gradient = 0.00039787729
GAMG:  Solving for p, Initial residual = 4.5683928e-05, Final residual = 7.5482644e-07, No Iterations 1
GAMG:  Solving for p, Initial residual = 7.5482631e-07, Final residual = 7.5482631e-07, No Iterations 0
time step continuity errors : sum local = 5.4574444e-11, global = 1.6827389e-18, cumulative = 4.8986873e-16
Pressure gradient source: uncorrected Ubar = 0.66666666, pressure gradient = 0.00039787729
GAMG:  Solving for p, Initial residual = 7.1885751e-06, Final residual = 7.1885751e-06, No Iterations 0
GAMG:  Solving for p, Initial residual = 7.1885751e-06, Final residual = 1.4295488e-07, No Iterations 1
time step continuity errors : sum local = 1.0285728e-11, global = 1.7534016e-18, cumulative = 4.9162213e-16
Pressure gradient source: uncorrected Ubar = 0.66666666, pressure gradient = 0.00039787729
PIMPLE: iteration 2
DILUPBiCG:  Solving for Ux, Initial residual = 7.6932526e-06, Final residual = 1.9539396e-07, No Iterations 1
DILUPBiCG:  Solving for Uy, Initial residual = 6.6275125e-05, Final residual = 1.0415341e-06, No Iterations 2
DILUPBiCG:  Solving for Uz, Initial residual = 0.00078952457, Final residual = 1.1279243e-05, No Iterations 2
Pressure gradient source: uncorrected Ubar = 0.66666667, pressure gradient = 0.00039786963
GAMG:  Solving for p, Initial residual = 0.0068126239, Final residual = 6.7426909e-05, No Iterations 3
GAMG:  Solving for p, Initial residual = 6.7438424e-05, Final residual = 6.6338969e-06, No Iterations 2
time step continuity errors : sum local = 4.689363e-10, global = 1.8480539e-18, cumulative = 4.9347019e-16
Pressure gradient source: uncorrected Ubar = 0.66666667, pressure gradient = 0.00039787759
GAMG:  Solving for p, Initial residual = 0.00041809584, Final residual = 5.5638237e-06, No Iterations 2
GAMG:  Solving for p, Initial residual = 5.5622383e-06, Final residual = 5.5622383e-06, No Iterations 0
time step continuity errors : sum local = 3.9317435e-10, global = 1.83918e-18, cumulative = 4.9530937e-16
Pressure gradient source: uncorrected Ubar = 0.66666667, pressure gradient = 0.00039787843
GAMG:  Solving for p, Initial residual = 2.6239798e-05, Final residual = 1.4889319e-06, No Iterations 1
GAMG:  Solving for p, Initial residual = 1.4889296e-06, Final residual = 1.4889296e-06, No Iterations 0
time step continuity errors : sum local = 1.0579846e-10, global = 1.8487619e-18, cumulative = 4.9715813e-16
Pressure gradient source: uncorrected Ubar = 0.66666667, pressure gradient = 0.00039787838
GAMG:  Solving for p, Initial residual = 3.2408707e-06, Final residual = 3.2408707e-06, No Iterations 0
GAMG:  Solving for p, Initial residual = 3.2408707e-06, Final residual = 3.2408707e-06, No Iterations 0
time step continuity errors : sum local = 2.2941534e-10, global = 1.8520732e-18, cumulative = 4.990102e-16
Pressure gradient source: uncorrected Ubar = 0.66666667, pressure gradient = 0.00039787838
GAMG:  Solving for p, Initial residual = 3.2904261e-06, Final residual = 3.2904261e-06, No Iterations 0
GAMG:  Solving for p, Initial residual = 3.2904261e-06, Final residual = 3.9948937e-07, No Iterations 1
time step continuity errors : sum local = 2.8303244e-11, global = 1.9287712e-18, cumulative = 5.0093897e-16
Pressure gradient source: uncorrected Ubar = 0.66666667, pressure gradient = 0.00039787838
PIMPLE: iteration 3
DILUPBiCG:  Solving for Ux, Initial residual = 9.9049554e-08, Final residual = 1.5930333e-09, No Iterations 1
DILUPBiCG:  Solving for Uy, Initial residual = 4.1213335e-06, Final residual = 5.4631082e-10, No Iterations 3
DILUPBiCG:  Solving for Uz, Initial residual = 4.9448691e-05, Final residual = 2.8998118e-09, No Iterations 3
Pressure gradient source: uncorrected Ubar = 0.66666667, pressure gradient = 0.00039787966
GAMG:  Solving for p, Initial residual = 0.00025632158, Final residual = 6.1452448e-06, No Iterations 1
GAMG:  Solving for p, Initial residual = 6.1452001e-06, Final residual = 6.1452001e-06, No Iterations 0
time step continuity errors : sum local = 4.3503791e-10, global = 1.8863745e-18, cumulative = 5.0282535e-16
Pressure gradient source: uncorrected Ubar = 0.66666667, pressure gradient = 0.00039787846
GAMG:  Solving for p, Initial residual = 1.9614365e-05, Final residual = 1.1782498e-06, No Iterations 1
GAMG:  Solving for p, Initial residual = 1.1782481e-06, Final residual = 1.1782481e-06, No Iterations 0
time step continuity errors : sum local = 8.4080363e-11, global = 1.7196787e-18, cumulative = 5.0454502e-16
Pressure gradient source: uncorrected Ubar = 0.66666667, pressure gradient = 0.00039787839
GAMG:  Solving for p, Initial residual = 2.3294384e-06, Final residual = 2.3294384e-06, No Iterations 0
GAMG:  Solving for p, Initial residual = 2.3294384e-06, Final residual = 2.3294384e-06, No Iterations 0
time step continuity errors : sum local = 1.6530945e-10, global = 1.7753497e-18, cumulative = 5.0632037e-16
Pressure gradient source: uncorrected Ubar = 0.66666667, pressure gradient = 0.00039787839
GAMG:  Solving for p, Initial residual = 2.3585247e-06, Final residual = 2.3585247e-06, No Iterations 0
GAMG:  Solving for p, Initial residual = 2.3585247e-06, Final residual = 2.3585247e-06, No Iterations 0
time step continuity errors : sum local = 1.673737e-10, global = 1.9112106e-18, cumulative = 5.0823158e-16
Pressure gradient source: uncorrected Ubar = 0.66666667, pressure gradient = 0.00039787839
GAMG:  Solving for p, Initial residual = 2.3011848e-06, Final residual = 2.3011848e-06, No Iterations 0
GAMG:  Solving for p, Initial residual = 2.3011848e-06, Final residual = 2.8431177e-07, No Iterations 1
time step continuity errors : sum local = 2.020664e-11, global = 1.6829371e-18, cumulative = 5.0991452e-16
Pressure gradient source: uncorrected Ubar = 0.66666667, pressure gradient = 0.00039787839
PIMPLE: converged in 3 iterations
ExecutionTime = 32.23 s  ClockTime = 33 s

Computing Re tau field

Patch id top: 1
sumReTau 100997.21
nodes: 1024
Average ReTau: 98.630088
Courant Number mean: 0.26851362 max: 0.39994576
deltaT = 0.069336095
Time = 4.9843887

PIMPLE: iteration 1
DILUPBiCG:  Solving for Ux, Initial residual = 0.00029027881, Final residual = 3.4060402e-06, No Iterations 1
DILUPBiCG:  Solving for Uy, Initial residual = 0.011082291, Final residual = 0.00013452822, No Iterations 1
DILUPBiCG:  Solving for Uz, Initial residual = 0.033183248, Final residual = 0.00057790087, No Iterations 1
Pressure gradient source: uncorrected Ubar = 0.66666666, pressure gradient = 0.00039810869
GAMG:  Solving for p, Initial residual = 0.016632416, Final residual = 9.2059139e-05, No Iterations 3
GAMG:  Solving for p, Initial residual = 9.223869e-05, Final residual = 9.0788123e-06, No Iterations 2
time step continuity errors : sum local = 6.397404e-10, global = 1.4865942e-18, cumulative = 5.1140112e-16
Pressure gradient source: uncorrected Ubar = 0.66666667, pressure gradient = 0.00039790988
GAMG:  Solving for p, Initial residual = 0.0041476776, Final residual = 1.4710091e-05, No Iterations 2
GAMG:  Solving for p, Initial residual = 1.4703991e-05, Final residual = 3.2856659e-06, No Iterations 1
time step continuity errors : sum local = 2.3513812e-10, global = 1.7138407e-18, cumulative = 5.1311496e-16
Pressure gradient source: uncorrected Ubar = 0.66666666, pressure gradient = 0.00039791764
GAMG:  Solving for p, Initial residual = 0.00037267283, Final residual = 4.9141878e-06, No Iterations 1
GAMG:  Solving for p, Initial residual = 4.9140754e-06, Final residual = 4.9140754e-06, No Iterations 0
time step continuity errors : sum local = 3.5098973e-10, global = 1.7700836e-18, cumulative = 5.1488504e-16
Pressure gradient source: uncorrected Ubar = 0.66666666, pressure gradient = 0.00039791767
GAMG:  Solving for p, Initial residual = 4.8373843e-05, Final residual = 8.0453758e-07, No Iterations 1
GAMG:  Solving for p, Initial residual = 8.0453745e-07, Final residual = 8.0453745e-07, No Iterations 0
time step continuity errors : sum local = 6.1561975e-11, global = 1.7634157e-18, cumulative = 5.1664846e-16
Pressure gradient source: uncorrected Ubar = 0.66666666, pressure gradient = 0.00039791767
GAMG:  Solving for p, Initial residual = 7.5801112e-06, Final residual = 7.5801112e-06, No Iterations 0
GAMG:  Solving for p, Initial residual = 7.5801112e-06, Final residual = 1.7812037e-07, No Iterations 1
time step continuity errors : sum local = 1.3287476e-11, global = 1.6716656e-18, cumulative = 5.1832012e-16
Pressure gradient source: uncorrected Ubar = 0.66666666, pressure gradient = 0.00039791767
PIMPLE: iteration 2
DILUPBiCG:  Solving for Ux, Initial residual = 7.6783999e-06, Final residual = 2.1551962e-07, No Iterations 1
DILUPBiCG:  Solving for Uy, Initial residual = 6.58487e-05, Final residual = 9.9077854e-07, No Iterations 2
DILUPBiCG:  Solving for Uz, Initial residual = 0.00079576395, Final residual = 1.056825e-05, No Iterations 2
Pressure gradient source: uncorrected Ubar = 0.66666667, pressure gradient = 0.00039791516
GAMG:  Solving for p, Initial residual = 0.0069309528, Final residual = 6.7556566e-05, No Iterations 3
GAMG:  Solving for p, Initial residual = 6.7575744e-05, Final residual = 6.6494782e-06, No Iterations 2
time step continuity errors : sum local = 4.6877246e-10, global = 1.5847599e-18, cumulative = 5.1990488e-16
Pressure gradient source: uncorrected Ubar = 0.66666667, pressure gradient = 0.00039791787
GAMG:  Solving for p, Initial residual = 0.00042605445, Final residual = 5.6061918e-06, No Iterations 2
GAMG:  Solving for p, Initial residual = 5.6046359e-06, Final residual = 5.6046359e-06, No Iterations 0
time step continuity errors : sum local = 3.9517446e-10, global = 1.6285682e-18, cumulative = 5.2153345e-16
Pressure gradient source: uncorrected Ubar = 0.66666667, pressure gradient = 0.00039791881
GAMG:  Solving for p, Initial residual = 2.6297905e-05, Final residual = 1.5027069e-06, No Iterations 1
GAMG:  Solving for p, Initial residual = 1.5027053e-06, Final residual = 1.5027053e-06, No Iterations 0
time step continuity errors : sum local = 1.0661296e-10, global = 1.6815841e-18, cumulative = 5.2321503e-16
Pressure gradient source: uncorrected Ubar = 0.66666667, pressure gradient = 0.00039791876
